 xtb: 6.7.1 (edcfbbe)
          04072502423D

 15 14  0     0  0            999 V2000
    1.9264    0.6094    0.3179 C   0  0  0  0  0  0  0  0  0  0  0  0
    1.0250   -0.1671   -0.6394 C   0  0  0  0  0  0  0  0  0  0  0  0
   -0.0000   -0.9127    0.0002 O   0  0  0  0  0  0  0  0  0  0  0  0
   -1.0251   -0.1670    0.6395 C   0  0  0  0  0  0  0  0  0  0  0  0
   -1.9263    0.6093   -0.3182 C   0  0  0  0  0  0  0  0  0  0  0  0
    1.3976    1.4455    0.7683 H   0  0  0  0  0  0  0  0  0  0  0  0
    2.2822   -0.0486    1.1068 H   0  0  0  0  0  0  0  0  0  0  0  0
    2.7783    0.9966   -0.2324 H   0  0  0  0  0  0  0  0  0  0  0  0
    1.6084   -0.9302   -1.1604 H   0  0  0  0  0  0  0  0  0  0  0  0
    0.5944    0.5107   -1.3868 H   0  0  0  0  0  0  0  0  0  0  0  0
   -1.6086   -0.9300    1.1606 H   0  0  0  0  0  0  0  0  0  0  0  0
   -0.5946    0.5109    1.3868 H   0  0  0  0  0  0  0  0  0  0  0  0
   -2.7783    0.9967    0.2320 H   0  0  0  0  0  0  0  0  0  0  0  0
   -1.3974    1.4453   -0.7688 H   0  0  0  0  0  0  0  0  0  0  0  0
   -2.2821   -0.0488   -1.1070 H   0  0  0  0  0  0  0  0  0  0  0  0
  1  2  1  0  0  0  0
  2  3  1  0  0  0  0
  3  4  1  0  0  0  0
  4  5  1  0  0  0  0
  1  6  1  0  0  0  0
  1  7  1  0  0  0  0
  1  8  1  0  0  0  0
  2  9  1  0  0  0  0
  2 10  1  0  0  0  0
  4 11  1  0  0  0  0
  4 12  1  0  0  0  0
  5 13  1  0  0  0  0
  5 14  1  0  0  0  0
  5 15  1  0  0  0  0
M  END
