 xtb: 6.7.1 (edcfbbe)
          04062522313D

 15 14  0     0  0            999 V2000
    2.0473   -0.5860   -0.2679 C   0  0  0  0  0  0  0  0  0  0  0  0
    1.1351    0.2326    0.6398 C   0  0  0  0  0  0  0  0  0  0  0  0
    0.0167    0.9490   -0.1218 C   0  0  0  0  0  0  0  0  0  0  0  0
   -1.0779    0.0189   -0.6517 C   0  0  0  0  0  0  0  0  0  0  0  0
   -1.9381   -0.4708    0.3578 O   0  0  0  0  0  0  0  0  0  0  0  0
    2.8463   -1.0394    0.3135 H   0  0  0  0  0  0  0  0  0  0  0  0
    1.4994   -1.3807   -0.7675 H   0  0  0  0  0  0  0  0  0  0  0  0
    2.4939    0.0506   -1.0280 H   0  0  0  0  0  0  0  0  0  0  0  0
    0.7076   -0.4152    1.4080 H   0  0  0  0  0  0  0  0  0  0  0  0
    1.7358    0.9866    1.1526 H   0  0  0  0  0  0  0  0  0  0  0  0
   -0.4584    1.6805    0.5355 H   0  0  0  0  0  0  0  0  0  0  0  0
    0.4471    1.4851   -0.9688 H   0  0  0  0  0  0  0  0  0  0  0  0
   -1.7309    0.5724   -1.3309 H   0  0  0  0  0  0  0  0  0  0  0  0
   -0.6374   -0.8179   -1.2082 H   0  0  0  0  0  0  0  0  0  0  0  0
   -1.4158   -0.9714    0.9995 H   0  0  0  0  0  0  0  0  0  0  0  0
  1  2  1  0  0  0  0
  2  3  1  0  0  0  0
  3  4  1  0  0  0  0
  4  5  1  0  0  0  0
  1  6  1  0  0  0  0
  1  7  1  0  0  0  0
  1  8  1  0  0  0  0
  2  9  1  0  0  0  0
  2 10  1  0  0  0  0
  3 11  1  0  0  0  0
  3 12  1  0  0  0  0
  4 13  1  0  0  0  0
  4 14  1  0  0  0  0
  5 15  1  0  0  0  0
M  END
