 xtb: 6.7.1 (edcfbbe)
          04062522383D

 15 14  0     0  0            999 V2000
    2.4572   -0.2535   -0.1093 C   0  0  0  0  0  0  0  0  0  0  0  0
    1.0520    0.2779   -0.3674 C   0  0  0  0  0  0  0  0  0  0  0  0
    0.0622   -0.2241    0.6834 C   0  0  0  0  0  0  0  0  0  0  0  0
   -1.3417    0.3614    0.5149 C   0  0  0  0  0  0  0  0  0  0  0  0
   -2.0411   -0.1487   -0.6021 O   0  0  0  0  0  0  0  0  0  0  0  0
    3.1474    0.1096   -0.8666 H   0  0  0  0  0  0  0  0  0  0  0  0
    2.8136    0.0709    0.8656 H   0  0  0  0  0  0  0  0  0  0  0  0
    2.4627   -1.3408   -0.1310 H   0  0  0  0  0  0  0  0  0  0  0  0
    1.0696    1.3704   -0.3524 H   0  0  0  0  0  0  0  0  0  0  0  0
    0.7320   -0.0411   -1.3615 H   0  0  0  0  0  0  0  0  0  0  0  0
   -0.0060   -1.3128    0.6353 H   0  0  0  0  0  0  0  0  0  0  0  0
    0.4229    0.0493    1.6762 H   0  0  0  0  0  0  0  0  0  0  0  0
   -1.9589    0.0958    1.3767 H   0  0  0  0  0  0  0  0  0  0  0  0
   -1.2849    1.4572    0.4552 H   0  0  0  0  0  0  0  0  0  0  0  0
   -1.5570    0.0790   -1.4072 H   0  0  0  0  0  0  0  0  0  0  0  0
  1  2  1  0  0  0  0
  2  3  1  0  0  0  0
  3  4  1  0  0  0  0
  4  5  1  0  0  0  0
  1  6  1  0  0  0  0
  1  7  1  0  0  0  0
  1  8  1  0  0  0  0
  2  9  1  0  0  0  0
  2 10  1  0  0  0  0
  3 11  1  0  0  0  0
  3 12  1  0  0  0  0
  4 13  1  0  0  0  0
  4 14  1  0  0  0  0
  5 15  1  0  0  0  0
M  END
