 xtb: 6.7.1 (edcfbbe)
          04062522343D

 15 14  0     0  0            999 V2000
    1.7798   -0.8328    0.2842 C   0  0  0  0  0  0  0  0  0  0  0  0
    1.2108    0.5788    0.1634 C   0  0  0  0  0  0  0  0  0  0  0  0
    0.0439    0.6633   -0.8297 C   0  0  0  0  0  0  0  0  0  0  0  0
   -1.3330    0.4991   -0.1779 C   0  0  0  0  0  0  0  0  0  0  0  0
   -1.5500   -0.7617    0.4219 O   0  0  0  0  0  0  0  0  0  0  0  0
    2.5290   -0.8755    1.0714 H   0  0  0  0  0  0  0  0  0  0  0  0
    1.0004   -1.5569    0.5058 H   0  0  0  0  0  0  0  0  0  0  0  0
    2.2511   -1.1263   -0.6514 H   0  0  0  0  0  0  0  0  0  0  0  0
    0.8812    0.9339    1.1429 H   0  0  0  0  0  0  0  0  0  0  0  0
    2.0102    1.2451   -0.1664 H   0  0  0  0  0  0  0  0  0  0  0  0
    0.0434    1.6375   -1.3203 H   0  0  0  0  0  0  0  0  0  0  0  0
    0.1648   -0.1010   -1.5987 H   0  0  0  0  0  0  0  0  0  0  0  0
   -1.4869    1.2965    0.5618 H   0  0  0  0  0  0  0  0  0  0  0  0
   -2.1091    0.5879   -0.9426 H   0  0  0  0  0  0  0  0  0  0  0  0
   -0.9812   -0.8350    1.2001 H   0  0  0  0  0  0  0  0  0  0  0  0
  1  2  1  0  0  0  0
  2  3  1  0  0  0  0
  3  4  1  0  0  0  0
  4  5  1  0  0  0  0
  1  6  1  0  0  0  0
  1  7  1  0  0  0  0
  1  8  1  0  0  0  0
  2  9  1  0  0  0  0
  2 10  1  0  0  0  0
  3 11  1  0  0  0  0
  3 12  1  0  0  0  0
  4 13  1  0  0  0  0
  4 14  1  0  0  0  0
  5 15  1  0  0  0  0
M  END
