 xtb: 6.7.1 (edcfbbe)
          04072502423D

 15 14  0     0  0            999 V2000
    1.7053    0.8701   -0.2771 C   0  0  0  0  0  0  0  0  0  0  0  0
    1.2122   -0.5575   -0.0499 C   0  0  0  0  0  0  0  0  0  0  0  0
   -0.0009   -0.6569    0.6762 O   0  0  0  0  0  0  0  0  0  0  0  0
   -1.2075   -0.5561   -0.0610 C   0  0  0  0  0  0  0  0  0  0  0  0
   -1.7090    0.8711   -0.2715 C   0  0  0  0  0  0  0  0  0  0  0  0
    2.7288    0.8387   -0.6393 H   0  0  0  0  0  0  0  0  0  0  0  0
    1.0950    1.3911   -1.0087 H   0  0  0  0  0  0  0  0  0  0  0  0
    1.6775    1.4202    0.6596 H   0  0  0  0  0  0  0  0  0  0  0  0
    1.9374   -1.0949    0.5687 H   0  0  0  0  0  0  0  0  0  0  0  0
    1.1131   -1.0836   -1.0096 H   0  0  0  0  0  0  0  0  0  0  0  0
   -1.0948   -1.0669   -1.0272 H   0  0  0  0  0  0  0  0  0  0  0  0
   -1.9355   -1.1077    0.5416 H   0  0  0  0  0  0  0  0  0  0  0  0
   -2.7286    0.8384   -0.6442 H   0  0  0  0  0  0  0  0  0  0  0  0
   -1.6944    1.4064    0.6739 H   0  0  0  0  0  0  0  0  0  0  0  0
   -1.0954    1.4083   -0.9882 H   0  0  0  0  0  0  0  0  0  0  0  0
  1  2  1  0  0  0  0
  2  3  1  0  0  0  0
  3  4  1  0  0  0  0
  4  5  1  0  0  0  0
  1  6  1  0  0  0  0
  1  7  1  0  0  0  0
  1  8  1  0  0  0  0
  2  9  1  0  0  0  0
  2 10  1  0  0  0  0
  4 11  1  0  0  0  0
  4 12  1  0  0  0  0
  5 13  1  0  0  0  0
  5 14  1  0  0  0  0
  5 15  1  0  0  0  0
M  END
