 xtb: 6.7.1 (edcfbbe)
          04072502463D

 15 14  0     0  0            999 V2000
    1.9119    0.6209    0.2964 C   0  0  0  0  0  0  0  0  0  0  0  0
    1.0194   -0.1799   -0.6489 C   0  0  0  0  0  0  0  0  0  0  0  0
   -0.0000   -0.9251    0.0001 O   0  0  0  0  0  0  0  0  0  0  0  0
   -1.0194   -0.1797    0.6489 C   0  0  0  0  0  0  0  0  0  0  0  0
   -1.9119    0.6209   -0.2967 C   0  0  0  0  0  0  0  0  0  0  0  0
    1.3754    1.4613    0.7294 H   0  0  0  0  0  0  0  0  0  0  0  0
    2.2704   -0.0195    1.0985 H   0  0  0  0  0  0  0  0  0  0  0  0
    2.7626    1.0041   -0.2587 H   0  0  0  0  0  0  0  0  0  0  0  0
    1.6104   -0.9462   -1.1565 H   0  0  0  0  0  0  0  0  0  0  0  0
    0.5836    0.4814   -1.4082 H   0  0  0  0  0  0  0  0  0  0  0  0
   -1.6104   -0.9458    1.1567 H   0  0  0  0  0  0  0  0  0  0  0  0
   -0.5836    0.4817    1.4080 H   0  0  0  0  0  0  0  0  0  0  0  0
   -2.7626    1.0042    0.2583 H   0  0  0  0  0  0  0  0  0  0  0  0
   -1.3754    1.4612   -0.7298 H   0  0  0  0  0  0  0  0  0  0  0  0
   -2.2704   -0.0197   -1.0986 H   0  0  0  0  0  0  0  0  0  0  0  0
  1  2  1  0  0  0  0
  2  3  1  0  0  0  0
  3  4  1  0  0  0  0
  4  5  1  0  0  0  0
  1  6  1  0  0  0  0
  1  7  1  0  0  0  0
  1  8  1  0  0  0  0
  2  9  1  0  0  0  0
  2 10  1  0  0  0  0
  4 11  1  0  0  0  0
  4 12  1  0  0  0  0
  5 13  1  0  0  0  0
  5 14  1  0  0  0  0
  5 15  1  0  0  0  0
M  END
