 xtb: 6.7.1 (edcfbbe)
          04072501043D

 15 15  0     0  0            999 V2000
   -2.5265    0.4795   -0.1095 C   0  0  0  0  0  0  0  0  0  0  0  0
   -2.2201   -0.8648   -0.2513 C   0  0  0  0  0  0  0  0  0  0  0  0
   -0.9136   -1.2960   -0.1160 C   0  0  0  0  0  0  0  0  0  0  0  0
    0.0851   -0.3709    0.1607 C   0  0  0  0  0  0  0  0  0  0  0  0
   -0.2101    0.9743    0.3132 C   0  0  0  0  0  0  0  0  0  0  0  0
   -1.5243    1.3913    0.1732 C   0  0  0  0  0  0  0  0  0  0  0  0
    1.3745   -0.9039    0.3224 O   0  0  0  0  0  0  0  0  0  0  0  0
    2.4699   -0.2571    0.0035 C   0  0  0  0  0  0  0  0  0  0  0  0
    2.5768    0.8412   -0.4767 O   0  0  0  0  0  0  0  0  0  0  0  0
   -3.5456    0.8153   -0.2170 H   0  0  0  0  0  0  0  0  0  0  0  0
   -2.9976   -1.5798   -0.4679 H   0  0  0  0  0  0  0  0  0  0  0  0
   -0.6487   -2.3356   -0.2200 H   0  0  0  0  0  0  0  0  0  0  0  0
    0.5696    1.6852    0.5337 H   0  0  0  0  0  0  0  0  0  0  0  0
   -1.7587    2.4376    0.2894 H   0  0  0  0  0  0  0  0  0  0  0  0
    3.3327   -0.9005    0.2379 H   0  0  0  0  0  0  0  0  0  0  0  0
  1  2  4  0  0  0  0
  2  3  4  0  0  0  0
  3  4  4  0  0  0  0
  4  5  4  0  0  0  0
  1  6  4  0  0  0  0
  5  6  4  0  0  0  0
  4  7  1  0  0  0  0
  7  8  1  0  0  0  0
  8  9  2  0  0  0  0
  1 10  1  0  0  0  0
  2 11  1  0  0  0  0
  3 12  1  0  0  0  0
  5 13  1  0  0  0  0
  6 14  1  0  0  0  0
  8 15  1  0  0  0  0
M  END
