 xtb: 6.7.1 (edcfbbe)
          04072502523D

 15 14  0     0  0            999 V2000
    2.3804    0.4063    0.0000 C   0  0  0  0  0  0  0  0  0  0  0  0
    1.1832   -0.5301   -0.0001 C   0  0  0  0  0  0  0  0  0  0  0  0
    0.0000    0.2448    0.0000 O   0  0  0  0  0  0  0  0  0  0  0  0
   -1.1832   -0.5301   -0.0000 C   0  0  0  0  0  0  0  0  0  0  0  0
   -2.3804    0.4063    0.0000 C   0  0  0  0  0  0  0  0  0  0  0  0
    2.3511    1.0393    0.8821 H   0  0  0  0  0  0  0  0  0  0  0  0
    3.2989   -0.1718   -0.0002 H   0  0  0  0  0  0  0  0  0  0  0  0
    2.3510    1.0398   -0.8817 H   0  0  0  0  0  0  0  0  0  0  0  0
    1.1984   -1.1782    0.8903 H   0  0  0  0  0  0  0  0  0  0  0  0
    1.1984   -1.1778   -0.8909 H   0  0  0  0  0  0  0  0  0  0  0  0
   -1.1984   -1.1780   -0.8907 H   0  0  0  0  0  0  0  0  0  0  0  0
   -1.1984   -1.1780    0.8906 H   0  0  0  0  0  0  0  0  0  0  0  0
   -2.3510    1.0395    0.8819 H   0  0  0  0  0  0  0  0  0  0  0  0
   -2.3510    1.0396   -0.8818 H   0  0  0  0  0  0  0  0  0  0  0  0
   -3.2989   -0.1718    0.0000 H   0  0  0  0  0  0  0  0  0  0  0  0
  1  2  1  0  0  0  0
  2  3  1  0  0  0  0
  3  4  1  0  0  0  0
  4  5  1  0  0  0  0
  1  6  1  0  0  0  0
  1  7  1  0  0  0  0
  1  8  1  0  0  0  0
  2  9  1  0  0  0  0
  2 10  1  0  0  0  0
  4 11  1  0  0  0  0
  4 12  1  0  0  0  0
  5 13  1  0  0  0  0
  5 14  1  0  0  0  0
  5 15  1  0  0  0  0
M  END
