 xtb: 6.7.1 (edcfbbe)
          04072502463D

 15 14  0     0  0            999 V2000
    1.6971    0.8517   -0.3213 C   0  0  0  0  0  0  0  0  0  0  0  0
    1.2257   -0.5666   -0.0080 C   0  0  0  0  0  0  0  0  0  0  0  0
   -0.0096   -0.6459    0.6809 O   0  0  0  0  0  0  0  0  0  0  0  0
   -1.1912   -0.5393   -0.0971 C   0  0  0  0  0  0  0  0  0  0  0  0
   -1.7302    0.8833   -0.2308 C   0  0  0  0  0  0  0  0  0  0  0  0
    2.7297    0.8164   -0.6565 H   0  0  0  0  0  0  0  0  0  0  0  0
    1.0953    1.3057   -1.1032 H   0  0  0  0  0  0  0  0  0  0  0  0
    1.6356    1.4653    0.5735 H   0  0  0  0  0  0  0  0  0  0  0  0
    1.9381   -1.0443    0.6707 H   0  0  0  0  0  0  0  0  0  0  0  0
    1.1710   -1.1591   -0.9324 H   0  0  0  0  0  0  0  0  0  0  0  0
   -1.0234   -0.9803   -1.0886 H   0  0  0  0  0  0  0  0  0  0  0  0
   -1.9261   -1.1515    0.4358 H   0  0  0  0  0  0  0  0  0  0  0  0
   -2.7181    0.8479   -0.6810 H   0  0  0  0  0  0  0  0  0  0  0  0
   -1.8047    1.3389    0.7528 H   0  0  0  0  0  0  0  0  0  0  0  0
   -1.0859    1.4981   -0.8518 H   0  0  0  0  0  0  0  0  0  0  0  0
  1  2  1  0  0  0  0
  2  3  1  0  0  0  0
  3  4  1  0  0  0  0
  4  5  1  0  0  0  0
  1  6  1  0  0  0  0
  1  7  1  0  0  0  0
  1  8  1  0  0  0  0
  2  9  1  0  0  0  0
  2 10  1  0  0  0  0
  4 11  1  0  0  0  0
  4 12  1  0  0  0  0
  5 13  1  0  0  0  0
  5 14  1  0  0  0  0
  5 15  1  0  0  0  0
M  END
