 xtb: 6.7.1 (edcfbbe)
          04062522313D

 15 14  0     0  0            999 V2000
    2.0213   -0.6779    0.0040 C   0  0  0  0  0  0  0  0  0  0  0  0
    1.1024    0.4341   -0.4884 C   0  0  0  0  0  0  0  0  0  0  0  0
    0.0342    0.8188    0.5377 C   0  0  0  0  0  0  0  0  0  0  0  0
   -1.1042   -0.2005    0.6151 C   0  0  0  0  0  0  0  0  0  0  0  0
   -1.8229   -0.3233   -0.5948 O   0  0  0  0  0  0  0  0  0  0  0  0
    1.4604   -1.5887    0.1969 H   0  0  0  0  0  0  0  0  0  0  0  0
    2.7784   -0.8990   -0.7443 H   0  0  0  0  0  0  0  0  0  0  0  0
    2.5218   -0.3799    0.9228 H   0  0  0  0  0  0  0  0  0  0  0  0
    1.7048    1.3148   -0.7197 H   0  0  0  0  0  0  0  0  0  0  0  0
    0.6062    0.1147   -1.4075 H   0  0  0  0  0  0  0  0  0  0  0  0
    0.4852    0.9084    1.5269 H   0  0  0  0  0  0  0  0  0  0  0  0
   -0.3879    1.7909    0.2711 H   0  0  0  0  0  0  0  0  0  0  0  0
   -0.7123   -1.1990    0.8181 H   0  0  0  0  0  0  0  0  0  0  0  0
   -1.7875    0.0710    1.4320 H   0  0  0  0  0  0  0  0  0  0  0  0
   -2.2051    0.5364   -0.8193 H   0  0  0  0  0  0  0  0  0  0  0  0
  1  2  1  0  0  0  0
  2  3  1  0  0  0  0
  3  4  1  0  0  0  0
  4  5  1  0  0  0  0
  1  6  1  0  0  0  0
  1  7  1  0  0  0  0
  1  8  1  0  0  0  0
  2  9  1  0  0  0  0
  2 10  1  0  0  0  0
  3 11  1  0  0  0  0
  3 12  1  0  0  0  0
  4 13  1  0  0  0  0
  4 14  1  0  0  0  0
  5 15  1  0  0  0  0
M  END
