 xtb: 6.7.1 (edcfbbe)
          04072502423D

 15 14  0     0  0            999 V2000
    1.9842    0.5589    0.3198 C   0  0  0  0  0  0  0  0  0  0  0  0
    1.0212   -0.1324   -0.6432 C   0  0  0  0  0  0  0  0  0  0  0  0
   -0.0000   -0.8798    0.0003 O   0  0  0  0  0  0  0  0  0  0  0  0
   -1.0212   -0.1320    0.6433 C   0  0  0  0  0  0  0  0  0  0  0  0
   -1.9842    0.5587   -0.3201 C   0  0  0  0  0  0  0  0  0  0  0  0
    2.3613   -0.1593    1.0434 H   0  0  0  0  0  0  0  0  0  0  0  0
    2.8177    0.9683   -0.2427 H   0  0  0  0  0  0  0  0  0  0  0  0
    1.4955    1.3704    0.8529 H   0  0  0  0  0  0  0  0  0  0  0  0
    1.5594   -0.8806   -1.2303 H   0  0  0  0  0  0  0  0  0  0  0  0
    0.5835    0.6005   -1.3317 H   0  0  0  0  0  0  0  0  0  0  0  0
   -1.5593   -0.8798    1.2310 H   0  0  0  0  0  0  0  0  0  0  0  0
   -0.5835    0.6014    1.3312 H   0  0  0  0  0  0  0  0  0  0  0  0
   -2.3616   -0.1602   -1.0429 H   0  0  0  0  0  0  0  0  0  0  0  0
   -2.8174    0.9689    0.2422 H   0  0  0  0  0  0  0  0  0  0  0  0
   -1.4953    1.3696   -0.8541 H   0  0  0  0  0  0  0  0  0  0  0  0
  1  2  1  0  0  0  0
  2  3  1  0  0  0  0
  3  4  1  0  0  0  0
  4  5  1  0  0  0  0
  1  6  1  0  0  0  0
  1  7  1  0  0  0  0
  1  8  1  0  0  0  0
  2  9  1  0  0  0  0
  2 10  1  0  0  0  0
  4 11  1  0  0  0  0
  4 12  1  0  0  0  0
  5 13  1  0  0  0  0
  5 14  1  0  0  0  0
  5 15  1  0  0  0  0
M  END
