 xtb: 6.7.1 (edcfbbe)
          04072502423D

 15 14  0     0  0            999 V2000
    2.0602    0.4817    0.3204 C   0  0  0  0  0  0  0  0  0  0  0  0
    1.0172   -0.0788   -0.6444 C   0  0  0  0  0  0  0  0  0  0  0  0
   -0.0000   -0.8308    0.0003 O   0  0  0  0  0  0  0  0  0  0  0  0
   -1.0171   -0.0781    0.6444 C   0  0  0  0  0  0  0  0  0  0  0  0
   -2.0603    0.4814   -0.3207 C   0  0  0  0  0  0  0  0  0  0  0  0
    2.4668   -0.3213    0.9295 H   0  0  0  0  0  0  0  0  0  0  0  0
    2.8635    0.9416   -0.2470 H   0  0  0  0  0  0  0  0  0  0  0  0
    1.6257    1.2313    0.9770 H   0  0  0  0  0  0  0  0  0  0  0  0
    1.4885   -0.7926   -1.3246 H   0  0  0  0  0  0  0  0  0  0  0  0
    0.5772    0.7307   -1.2387 H   0  0  0  0  0  0  0  0  0  0  0  0
   -1.4884   -0.7912    1.3254 H   0  0  0  0  0  0  0  0  0  0  0  0
   -0.5769    0.7319    1.2379 H   0  0  0  0  0  0  0  0  0  0  0  0
   -2.8632    0.9422    0.2463 H   0  0  0  0  0  0  0  0  0  0  0  0
   -1.6256    1.2300   -0.9785 H   0  0  0  0  0  0  0  0  0  0  0  0
   -2.4673   -0.3223   -0.9287 H   0  0  0  0  0  0  0  0  0  0  0  0
  1  2  1  0  0  0  0
  2  3  1  0  0  0  0
  3  4  1  0  0  0  0
  4  5  1  0  0  0  0
  1  6  1  0  0  0  0
  1  7  1  0  0  0  0
  1  8  1  0  0  0  0
  2  9  1  0  0  0  0
  2 10  1  0  0  0  0
  4 11  1  0  0  0  0
  4 12  1  0  0  0  0
  5 13  1  0  0  0  0
  5 14  1  0  0  0  0
  5 15  1  0  0  0  0
M  END
