 xtb: 6.7.1 (edcfbbe)
          04062522313D

 15 14  0     0  0            999 V2000
    2.1479   -0.3014    0.5910 C   0  0  0  0  0  0  0  0  0  0  0  0
    1.3911    0.5133   -0.4527 C   0  0  0  0  0  0  0  0  0  0  0  0
   -0.0076   -0.0310   -0.7427 C   0  0  0  0  0  0  0  0  0  0  0  0
   -0.9651    0.1208    0.4404 C   0  0  0  0  0  0  0  0  0  0  0  0
   -2.3016   -0.1962    0.1042 O   0  0  0  0  0  0  0  0  0  0  0  0
    1.6596   -0.2440    1.5600 H   0  0  0  0  0  0  0  0  0  0  0  0
    2.2034   -1.3455    0.2919 H   0  0  0  0  0  0  0  0  0  0  0  0
    3.1609    0.0779    0.6993 H   0  0  0  0  0  0  0  0  0  0  0  0
    1.3114    1.5496   -0.1182 H   0  0  0  0  0  0  0  0  0  0  0  0
    1.9606    0.5086   -1.3843 H   0  0  0  0  0  0  0  0  0  0  0  0
   -0.4355    0.5094   -1.5902 H   0  0  0  0  0  0  0  0  0  0  0  0
    0.0652   -1.0860   -1.0179 H   0  0  0  0  0  0  0  0  0  0  0  0
   -0.6383   -0.4989    1.2848 H   0  0  0  0  0  0  0  0  0  0  0  0
   -0.9920    1.1634    0.7677 H   0  0  0  0  0  0  0  0  0  0  0  0
   -2.3411   -1.1160   -0.1924 H   0  0  0  0  0  0  0  0  0  0  0  0
  1  2  1  0  0  0  0
  2  3  1  0  0  0  0
  3  4  1  0  0  0  0
  4  5  1  0  0  0  0
  1  6  1  0  0  0  0
  1  7  1  0  0  0  0
  1  8  1  0  0  0  0
  2  9  1  0  0  0  0
  2 10  1  0  0  0  0
  3 11  1  0  0  0  0
  3 12  1  0  0  0  0
  4 13  1  0  0  0  0
  4 14  1  0  0  0  0
  5 15  1  0  0  0  0
M  END
