 xtb: 6.7.1 (edcfbbe)
          04062522313D

 15 14  0     0  0            999 V2000
    2.4174   -0.2846   -0.1672 C   0  0  0  0  0  0  0  0  0  0  0  0
    1.0213    0.2916   -0.3678 C   0  0  0  0  0  0  0  0  0  0  0  0
    0.0712   -0.1127    0.7579 C   0  0  0  0  0  0  0  0  0  0  0  0
   -1.3548    0.3787    0.5053 C   0  0  0  0  0  0  0  0  0  0  0  0
   -1.9422   -0.1819   -0.6505 O   0  0  0  0  0  0  0  0  0  0  0  0
    2.8404    0.0629    0.7726 H   0  0  0  0  0  0  0  0  0  0  0  0
    2.3837   -1.3716   -0.1468 H   0  0  0  0  0  0  0  0  0  0  0  0
    3.0755    0.0232   -0.9757 H   0  0  0  0  0  0  0  0  0  0  0  0
    1.0781    1.3814   -0.4119 H   0  0  0  0  0  0  0  0  0  0  0  0
    0.6115   -0.0538   -1.3192 H   0  0  0  0  0  0  0  0  0  0  0  0
    0.0653   -1.2012    0.8551 H   0  0  0  0  0  0  0  0  0  0  0  0
    0.4173    0.3070    1.7037 H   0  0  0  0  0  0  0  0  0  0  0  0
   -1.9817    0.1706    1.3834 H   0  0  0  0  0  0  0  0  0  0  0  0
   -1.3544    1.4576    0.3312 H   0  0  0  0  0  0  0  0  0  0  0  0
   -1.9867   -1.1424   -0.5436 H   0  0  0  0  0  0  0  0  0  0  0  0
  1  2  1  0  0  0  0
  2  3  1  0  0  0  0
  3  4  1  0  0  0  0
  4  5  1  0  0  0  0
  1  6  1  0  0  0  0
  1  7  1  0  0  0  0
  1  8  1  0  0  0  0
  2  9  1  0  0  0  0
  2 10  1  0  0  0  0
  3 11  1  0  0  0  0
  3 12  1  0  0  0  0
  4 13  1  0  0  0  0
  4 14  1  0  0  0  0
  5 15  1  0  0  0  0
M  END
