 xtb: 6.7.1 (edcfbbe)
          04072500463D

 15 15  0     0  0            999 V2000
   -2.5279    0.4677   -0.1256 C   0  0  0  0  0  0  0  0  0  0  0  0
   -2.2138   -0.8763   -0.2536 C   0  0  0  0  0  0  0  0  0  0  0  0
   -0.9060   -1.2995   -0.1069 C   0  0  0  0  0  0  0  0  0  0  0  0
    0.0861   -0.3668    0.1678 C   0  0  0  0  0  0  0  0  0  0  0  0
   -0.2167    0.9781    0.3064 C   0  0  0  0  0  0  0  0  0  0  0  0
   -1.5321    1.3872    0.1547 C   0  0  0  0  0  0  0  0  0  0  0  0
    1.3772   -0.8913    0.3430 O   0  0  0  0  0  0  0  0  0  0  0  0
    2.4707   -0.2431    0.0205 C   0  0  0  0  0  0  0  0  0  0  0  0
    2.5740    0.8488   -0.4747 O   0  0  0  0  0  0  0  0  0  0  0  0
   -3.5481    0.7972   -0.2418 H   0  0  0  0  0  0  0  0  0  0  0  0
   -2.9866   -1.5971   -0.4679 H   0  0  0  0  0  0  0  0  0  0  0  0
   -0.6348   -2.3386   -0.2003 H   0  0  0  0  0  0  0  0  0  0  0  0
    0.5582    1.6947    0.5253 H   0  0  0  0  0  0  0  0  0  0  0  0
   -1.7726    2.4332    0.2604 H   0  0  0  0  0  0  0  0  0  0  0  0
    3.3357   -0.8785    0.2683 H   0  0  0  0  0  0  0  0  0  0  0  0
  1  2  4  0  0  0  0
  2  3  4  0  0  0  0
  3  4  4  0  0  0  0
  4  5  4  0  0  0  0
  1  6  4  0  0  0  0
  5  6  4  0  0  0  0
  4  7  1  0  0  0  0
  7  8  1  0  0  0  0
  8  9  2  0  0  0  0
  1 10  1  0  0  0  0
  2 11  1  0  0  0  0
  3 12  1  0  0  0  0
  5 13  1  0  0  0  0
  6 14  1  0  0  0  0
  8 15  1  0  0  0  0
M  END
