 xtb: 6.7.1 (edcfbbe)
          04062522383D

 15 14  0     0  0            999 V2000
    2.5675   -0.3168   -0.0098 C   0  0  0  0  0  0  0  0  0  0  0  0
    1.2963    0.5242    0.0048 C   0  0  0  0  0  0  0  0  0  0  0  0
    0.0434   -0.3479   -0.0005 C   0  0  0  0  0  0  0  0  0  0  0  0
   -1.2316    0.4949    0.0258 C   0  0  0  0  0  0  0  0  0  0  0  0
   -2.4100   -0.2797   -0.0589 O   0  0  0  0  0  0  0  0  0  0  0  0
    3.4465    0.3224   -0.0075 H   0  0  0  0  0  0  0  0  0  0  0  0
    2.6085   -0.9615    0.8651 H   0  0  0  0  0  0  0  0  0  0  0  0
    2.5992   -0.9427   -0.8985 H   0  0  0  0  0  0  0  0  0  0  0  0
    1.2888    1.1584    0.8940 H   0  0  0  0  0  0  0  0  0  0  0  0
    1.2823    1.1792   -0.8686 H   0  0  0  0  0  0  0  0  0  0  0  0
    0.0312   -0.9732   -0.8957 H   0  0  0  0  0  0  0  0  0  0  0  0
    0.0584   -1.0077    0.8706 H   0  0  0  0  0  0  0  0  0  0  0  0
   -1.2521    1.1163    0.9322 H   0  0  0  0  0  0  0  0  0  0  0  0
   -1.2614    1.1581   -0.8424 H   0  0  0  0  0  0  0  0  0  0  0  0
   -2.4368   -0.8947    0.6873 H   0  0  0  0  0  0  0  0  0  0  0  0
  1  2  1  0  0  0  0
  2  3  1  0  0  0  0
  3  4  1  0  0  0  0
  4  5  1  0  0  0  0
  1  6  1  0  0  0  0
  1  7  1  0  0  0  0
  1  8  1  0  0  0  0
  2  9  1  0  0  0  0
  2 10  1  0  0  0  0
  3 11  1  0  0  0  0
  3 12  1  0  0  0  0
  4 13  1  0  0  0  0
  4 14  1  0  0  0  0
  5 15  1  0  0  0  0
M  END
