 xtb: 6.7.1 (edcfbbe)
          04062522313D

 15 14  0     0  0            999 V2000
    1.7800   -0.8355    0.2778 C   0  0  0  0  0  0  0  0  0  0  0  0
    1.2116    0.5766    0.1596 C   0  0  0  0  0  0  0  0  0  0  0  0
    0.0418    0.6612   -0.8302 C   0  0  0  0  0  0  0  0  0  0  0  0
   -1.3330    0.5016   -0.1728 C   0  0  0  0  0  0  0  0  0  0  0  0
   -1.5475   -0.7544    0.4377 O   0  0  0  0  0  0  0  0  0  0  0  0
    2.5292   -0.8802    1.0650 H   0  0  0  0  0  0  0  0  0  0  0  0
    1.0000   -1.5595    0.4977 H   0  0  0  0  0  0  0  0  0  0  0  0
    2.2513   -1.1273   -0.6583 H   0  0  0  0  0  0  0  0  0  0  0  0
    0.8847    0.9311    1.1402 H   0  0  0  0  0  0  0  0  0  0  0  0
    2.0102    1.2429   -0.1719 H   0  0  0  0  0  0  0  0  0  0  0  0
    0.0415    1.6340   -1.3236 H   0  0  0  0  0  0  0  0  0  0  0  0
    0.1585   -0.1056   -1.5973 H   0  0  0  0  0  0  0  0  0  0  0  0
   -1.4850    1.3049    0.5608 H   0  0  0  0  0  0  0  0  0  0  0  0
   -2.1116    0.5840   -0.9359 H   0  0  0  0  0  0  0  0  0  0  0  0
   -0.9773   -0.8210    1.2156 H   0  0  0  0  0  0  0  0  0  0  0  0
  1  2  1  0  0  0  0
  2  3  1  0  0  0  0
  3  4  1  0  0  0  0
  4  5  1  0  0  0  0
  1  6  1  0  0  0  0
  1  7  1  0  0  0  0
  1  8  1  0  0  0  0
  2  9  1  0  0  0  0
  2 10  1  0  0  0  0
  3 11  1  0  0  0  0
  3 12  1  0  0  0  0
  4 13  1  0  0  0  0
  4 14  1  0  0  0  0
  5 15  1  0  0  0  0
M  END
