 xtb: 6.7.1 (edcfbbe)
          04072502423D

 15 14  0     0  0            999 V2000
    1.9517    0.5880   -0.3191 C   0  0  0  0  0  0  0  0  0  0  0  0
    1.0235   -0.1525    0.6413 C   0  0  0  0  0  0  0  0  0  0  0  0
   -0.0000   -0.8987    0.0002 O   0  0  0  0  0  0  0  0  0  0  0  0
   -1.0232   -0.1522   -0.6413 C   0  0  0  0  0  0  0  0  0  0  0  0
   -1.9519    0.5880    0.3189 C   0  0  0  0  0  0  0  0  0  0  0  0
    1.4404    1.4158   -0.8038 H   0  0  0  0  0  0  0  0  0  0  0  0
    2.7967    0.9825    0.2366 H   0  0  0  0  0  0  0  0  0  0  0  0
    2.3155   -0.0958   -1.0819 H   0  0  0  0  0  0  0  0  0  0  0  0
    0.5896    0.5492    1.3642 H   0  0  0  0  0  0  0  0  0  0  0  0
    1.5877   -0.9101    1.1907 H   0  0  0  0  0  0  0  0  0  0  0  0
   -0.5888    0.5497   -1.3636 H   0  0  0  0  0  0  0  0  0  0  0  0
   -1.5871   -0.9096   -1.1913 H   0  0  0  0  0  0  0  0  0  0  0  0
   -2.7961    0.9837   -0.2374 H   0  0  0  0  0  0  0  0  0  0  0  0
   -2.3170   -0.0963    1.0806 H   0  0  0  0  0  0  0  0  0  0  0  0
   -1.4405    1.4149    0.8049 H   0  0  0  0  0  0  0  0  0  0  0  0
  1  2  1  0  0  0  0
  2  3  1  0  0  0  0
  3  4  1  0  0  0  0
  4  5  1  0  0  0  0
  1  6  1  0  0  0  0
  1  7  1  0  0  0  0
  1  8  1  0  0  0  0
  2  9  1  0  0  0  0
  2 10  1  0  0  0  0
  4 11  1  0  0  0  0
  4 12  1  0  0  0  0
  5 13  1  0  0  0  0
  5 14  1  0  0  0  0
  5 15  1  0  0  0  0
M  END
