 xtb: 6.7.1 (edcfbbe)
          04072502423D

 15 14  0     0  0            999 V2000
    1.9395    0.5982    0.3187 C   0  0  0  0  0  0  0  0  0  0  0  0
    1.0239   -0.1592   -0.6407 C   0  0  0  0  0  0  0  0  0  0  0  0
   -0.0001   -0.9054   -0.0002 O   0  0  0  0  0  0  0  0  0  0  0  0
   -1.0241   -0.1597    0.6408 C   0  0  0  0  0  0  0  0  0  0  0  0
   -1.9392    0.5983   -0.3187 C   0  0  0  0  0  0  0  0  0  0  0  0
    1.4208    1.4311    0.7863 H   0  0  0  0  0  0  0  0  0  0  0  0
    2.2984   -0.0731    1.0948 H   0  0  0  0  0  0  0  0  0  0  0  0
    2.7887    0.9879   -0.2341 H   0  0  0  0  0  0  0  0  0  0  0  0
    1.5970   -0.9195   -1.1771 H   0  0  0  0  0  0  0  0  0  0  0  0
    0.5910    0.5314   -1.3750 H   0  0  0  0  0  0  0  0  0  0  0  0
   -1.5973   -0.9203    1.1766 H   0  0  0  0  0  0  0  0  0  0  0  0
   -0.5912    0.5303    1.3757 H   0  0  0  0  0  0  0  0  0  0  0  0
   -2.2986   -0.0727   -1.0950 H   0  0  0  0  0  0  0  0  0  0  0  0
   -2.7881    0.9879    0.2347 H   0  0  0  0  0  0  0  0  0  0  0  0
   -1.4199    1.4315   -0.7859 H   0  0  0  0  0  0  0  0  0  0  0  0
  1  2  1  0  0  0  0
  2  3  1  0  0  0  0
  3  4  1  0  0  0  0
  4  5  1  0  0  0  0
  1  6  1  0  0  0  0
  1  7  1  0  0  0  0
  1  8  1  0  0  0  0
  2  9  1  0  0  0  0
  2 10  1  0  0  0  0
  4 11  1  0  0  0  0
  4 12  1  0  0  0  0
  5 13  1  0  0  0  0
  5 14  1  0  0  0  0
  5 15  1  0  0  0  0
M  END
