 xtb: 6.7.1 (edcfbbe)
          04072503403D

 20 21  0     0  0            999 V2000
   -4.5183   -0.8006   -0.0023 C   0  0  0  0  0  0  0  0  0  0  0  0
   -3.0895   -0.8356   -0.0026 O   0  0  0  0  0  0  0  0  0  0  0  0
   -2.4551    0.3271    0.0021 C   0  0  0  0  0  0  0  0  0  0  0  0
   -3.0229    1.4010    0.0064 O   0  0  0  0  0  0  0  0  0  0  0  0
   -0.9735    0.1776    0.0012 C   0  0  0  0  0  0  0  0  0  0  0  0
   -0.1955    1.3353    0.0012 C   0  0  0  0  0  0  0  0  0  0  0  0
    1.1811    1.2431    0.0004 C   0  0  0  0  0  0  0  0  0  0  0  0
    1.7712   -0.0185   -0.0002 C   0  0  0  0  0  0  0  0  0  0  0  0
    1.0045   -1.1814   -0.0001 C   0  0  0  0  0  0  0  0  0  0  0  0
   -0.3723   -1.0811    0.0006 C   0  0  0  0  0  0  0  0  0  0  0  0
    3.1988   -0.1223   -0.0009 N   0  0  0  0  0  0  0  0  0  0  0  0
    3.6973   -1.2340   -0.0015 O   0  0  0  0  0  0  0  0  0  0  0  0
    3.8532    0.9053   -0.0012 O   0  0  0  0  0  0  0  0  0  0  0  0
   -4.8788   -0.2675   -0.8828 H   0  0  0  0  0  0  0  0  0  0  0  0
   -4.8786   -0.2906    0.8919 H   0  0  0  0  0  0  0  0  0  0  0  0
   -4.8365   -1.8381   -0.0156 H   0  0  0  0  0  0  0  0  0  0  0  0
   -0.6913    2.2934    0.0017 H   0  0  0  0  0  0  0  0  0  0  0  0
    1.8069    2.1216    0.0002 H   0  0  0  0  0  0  0  0  0  0  0  0
    1.4999   -2.1397   -0.0005 H   0  0  0  0  0  0  0  0  0  0  0  0
   -0.9863   -1.9663    0.0008 H   0  0  0  0  0  0  0  0  0  0  0  0
  1  2  1  0  0  0  0
  2  3  1  0  0  0  0
  3  4  2  0  0  0  0
  3  5  1  0  0  0  0
  5  6  4  0  0  0  0
  6  7  4  0  0  0  0
  7  8  4  0  0  0  0
  8  9  4  0  0  0  0
  5 10  4  0  0  0  0
  9 10  4  0  0  0  0
  8 11  1  0  0  0  0
 11 12  4  0  0  0  0
 11 13  4  0  0  0  0
 12 13  1  0  0  0  0
  1 14  1  0  0  0  0
  1 15  1  0  0  0  0
  1 16  1  0  0  0  0
  6 17  1  0  0  0  0
  7 18  1  0  0  0  0
  9 19  1  0  0  0  0
 10 20  1  0  0  0  0
M  END
