 xtb: 6.7.1 (edcfbbe)
          04072502423D

 15 14  0     0  0            999 V2000
    2.0543    0.4881   -0.3208 C   0  0  0  0  0  0  0  0  0  0  0  0
    1.0172   -0.0826    0.6445 C   0  0  0  0  0  0  0  0  0  0  0  0
    0.0001   -0.8351    0.0003 O   0  0  0  0  0  0  0  0  0  0  0  0
   -1.0175   -0.0837   -0.6445 C   0  0  0  0  0  0  0  0  0  0  0  0
   -2.0540    0.4885    0.3204 C   0  0  0  0  0  0  0  0  0  0  0  0
    2.4597   -0.3091   -0.9384 H   0  0  0  0  0  0  0  0  0  0  0  0
    1.6151    1.2423   -0.9690 H   0  0  0  0  0  0  0  0  0  0  0  0
    2.8593    0.9448    0.2465 H   0  0  0  0  0  0  0  0  0  0  0  0
    0.5768    0.7215    1.2458 H   0  0  0  0  0  0  0  0  0  0  0  0
    1.4941   -0.7989    1.3182 H   0  0  0  0  0  0  0  0  0  0  0  0
   -0.5774    0.7194   -1.2474 H   0  0  0  0  0  0  0  0  0  0  0  0
   -1.4947   -0.8011   -1.3167 H   0  0  0  0  0  0  0  0  0  0  0  0
   -2.8601    0.9430   -0.2473 H   0  0  0  0  0  0  0  0  0  0  0  0
   -2.4581   -0.3074    0.9405 H   0  0  0  0  0  0  0  0  0  0  0  0
   -1.6150    1.2449    0.9662 H   0  0  0  0  0  0  0  0  0  0  0  0
  1  2  1  0  0  0  0
  2  3  1  0  0  0  0
  3  4  1  0  0  0  0
  4  5  1  0  0  0  0
  1  6  1  0  0  0  0
  1  7  1  0  0  0  0
  1  8  1  0  0  0  0
  2  9  1  0  0  0  0
  2 10  1  0  0  0  0
  4 11  1  0  0  0  0
  4 12  1  0  0  0  0
  5 13  1  0  0  0  0
  5 14  1  0  0  0  0
  5 15  1  0  0  0  0
M  END
