 xtb: 6.7.1 (edcfbbe)
          04062522383D

 15 14  0     0  0            999 V2000
    2.4186   -0.2833   -0.1662 C   0  0  0  0  0  0  0  0  0  0  0  0
    1.0210    0.2884   -0.3689 C   0  0  0  0  0  0  0  0  0  0  0  0
    0.0706   -0.1180    0.7557 C   0  0  0  0  0  0  0  0  0  0  0  0
   -1.3537    0.3805    0.5077 C   0  0  0  0  0  0  0  0  0  0  0  0
   -1.9454   -0.1714   -0.6501 O   0  0  0  0  0  0  0  0  0  0  0  0
    2.8397    0.0674    0.7734 H   0  0  0  0  0  0  0  0  0  0  0  0
    2.3884   -1.3703   -0.1436 H   0  0  0  0  0  0  0  0  0  0  0  0
    3.0765    0.0251   -0.9746 H   0  0  0  0  0  0  0  0  0  0  0  0
    1.0745    1.3783   -0.4135 H   0  0  0  0  0  0  0  0  0  0  0  0
    0.6136   -0.0588   -1.3207 H   0  0  0  0  0  0  0  0  0  0  0  0
    0.0606   -1.2069    0.8473 H   0  0  0  0  0  0  0  0  0  0  0  0
    0.4196    0.2955    1.7031 H   0  0  0  0  0  0  0  0  0  0  0  0
   -1.9804    0.1705    1.3857 H   0  0  0  0  0  0  0  0  0  0  0  0
   -1.3490    1.4603    0.3396 H   0  0  0  0  0  0  0  0  0  0  0  0
   -1.9929   -1.1323   -0.5484 H   0  0  0  0  0  0  0  0  0  0  0  0
  1  2  1  0  0  0  0
  2  3  1  0  0  0  0
  3  4  1  0  0  0  0
  4  5  1  0  0  0  0
  1  6  1  0  0  0  0
  1  7  1  0  0  0  0
  1  8  1  0  0  0  0
  2  9  1  0  0  0  0
  2 10  1  0  0  0  0
  3 11  1  0  0  0  0
  3 12  1  0  0  0  0
  4 13  1  0  0  0  0
  4 14  1  0  0  0  0
  5 15  1  0  0  0  0
M  END
