 xtb: 6.7.1 (edcfbbe)
          04072502423D

 15 14  0     0  0            999 V2000
    1.6215    0.8575   -0.3465 C   0  0  0  0  0  0  0  0  0  0  0  0
    1.2536   -0.5585    0.0887 C   0  0  0  0  0  0  0  0  0  0  0  0
   -0.0278   -0.6886    0.6779 O   0  0  0  0  0  0  0  0  0  0  0  0
   -1.1348   -0.5332   -0.1995 C   0  0  0  0  0  0  0  0  0  0  0  0
   -1.7151    0.8903   -0.2030 C   0  0  0  0  0  0  0  0  0  0  0  0
    2.6494    0.8631   -0.6969 H   0  0  0  0  0  0  0  0  0  0  0  0
    0.9758    1.1965   -1.1519 H   0  0  0  0  0  0  0  0  0  0  0  0
    1.5320    1.5430    0.4924 H   0  0  0  0  0  0  0  0  0  0  0  0
    1.9387   -0.8993    0.8690 H   0  0  0  0  0  0  0  0  0  0  0  0
    1.3305   -1.2422   -0.7701 H   0  0  0  0  0  0  0  0  0  0  0  0
   -0.8391   -0.8378   -1.2105 H   0  0  0  0  0  0  0  0  0  0  0  0
   -1.8823   -1.2442    0.1638 H   0  0  0  0  0  0  0  0  0  0  0  0
   -1.0655    1.5491    0.3657 H   0  0  0  0  0  0  0  0  0  0  0  0
   -1.8041    1.2755   -1.2145 H   0  0  0  0  0  0  0  0  0  0  0  0
   -2.6961    0.9078    0.2616 H   0  0  0  0  0  0  0  0  0  0  0  0
  1  2  1  0  0  0  0
  2  3  1  0  0  0  0
  3  4  1  0  0  0  0
  4  5  1  0  0  0  0
  1  6  1  0  0  0  0
  1  7  1  0  0  0  0
  1  8  1  0  0  0  0
  2  9  1  0  0  0  0
  2 10  1  0  0  0  0
  4 11  1  0  0  0  0
  4 12  1  0  0  0  0
  5 13  1  0  0  0  0
  5 14  1  0  0  0  0
  5 15  1  0  0  0  0
M  END
