 xtb: 6.7.1 (edcfbbe)
          04062522313D

 15 14  0     0  0            999 V2000
    2.3849    0.2338   -0.0773 C   0  0  0  0  0  0  0  0  0  0  0  0
    1.0042    0.0483    0.5414 C   0  0  0  0  0  0  0  0  0  0  0  0
    0.0471   -0.7249   -0.3816 C   0  0  0  0  0  0  0  0  0  0  0  0
   -1.2430    0.0491   -0.6588 C   0  0  0  0  0  0  0  0  0  0  0  0
   -1.9680    0.3696    0.5100 O   0  0  0  0  0  0  0  0  0  0  0  0
    2.8439   -0.7311   -0.2810 H   0  0  0  0  0  0  0  0  0  0  0  0
    2.3140    0.7866   -1.0112 H   0  0  0  0  0  0  0  0  0  0  0  0
    3.0328    0.7858    0.5995 H   0  0  0  0  0  0  0  0  0  0  0  0
    1.1100   -0.4746    1.4930 H   0  0  0  0  0  0  0  0  0  0  0  0
    0.5717    1.0270    0.7597 H   0  0  0  0  0  0  0  0  0  0  0  0
    0.5278   -0.9162   -1.3416 H   0  0  0  0  0  0  0  0  0  0  0  0
   -0.2063   -1.6915    0.0578 H   0  0  0  0  0  0  0  0  0  0  0  0
   -1.0106    1.0112   -1.1221 H   0  0  0  0  0  0  0  0  0  0  0  0
   -1.8779   -0.5222   -1.3509 H   0  0  0  0  0  0  0  0  0  0  0  0
   -2.1999   -0.4495    0.9690 H   0  0  0  0  0  0  0  0  0  0  0  0
  1  2  1  0  0  0  0
  2  3  1  0  0  0  0
  3  4  1  0  0  0  0
  4  5  1  0  0  0  0
  1  6  1  0  0  0  0
  1  7  1  0  0  0  0
  1  8  1  0  0  0  0
  2  9  1  0  0  0  0
  2 10  1  0  0  0  0
  3 11  1  0  0  0  0
  3 12  1  0  0  0  0
  4 13  1  0  0  0  0
  4 14  1  0  0  0  0
  5 15  1  0  0  0  0
M  END
