 xtb: 6.7.1 (edcfbbe)
          04062522313D

 15 14  0     0  0            999 V2000
    2.0349   -0.4708   -0.4199 C   0  0  0  0  0  0  0  0  0  0  0  0
    1.0852   -0.0281    0.6876 C   0  0  0  0  0  0  0  0  0  0  0  0
    0.0161    0.9539    0.2048 C   0  0  0  0  0  0  0  0  0  0  0  0
   -1.0794    0.2831   -0.6207 C   0  0  0  0  0  0  0  0  0  0  0  0
   -1.8097   -0.5986    0.2126 O   0  0  0  0  0  0  0  0  0  0  0  0
    2.5333    0.3912   -0.8586 H   0  0  0  0  0  0  0  0  0  0  0  0
    2.7924   -1.1396   -0.0186 H   0  0  0  0  0  0  0  0  0  0  0  0
    1.5017   -0.9976   -1.2070 H   0  0  0  0  0  0  0  0  0  0  0  0
    0.5861   -0.8974    1.1192 H   0  0  0  0  0  0  0  0  0  0  0  0
    1.6650    0.4509    1.4789 H   0  0  0  0  0  0  0  0  0  0  0  0
   -0.4615    1.4152    1.0710 H   0  0  0  0  0  0  0  0  0  0  0  0
    0.4756    1.7393   -0.3970 H   0  0  0  0  0  0  0  0  0  0  0  0
   -1.7478    1.0550   -1.0270 H   0  0  0  0  0  0  0  0  0  0  0  0
   -0.6369   -0.2676   -1.4599 H   0  0  0  0  0  0  0  0  0  0  0  0
   -2.4912   -1.0424   -0.3084 H   0  0  0  0  0  0  0  0  0  0  0  0
  1  2  1  0  0  0  0
  2  3  1  0  0  0  0
  3  4  1  0  0  0  0
  4  5  1  0  0  0  0
  1  6  1  0  0  0  0
  1  7  1  0  0  0  0
  1  8  1  0  0  0  0
  2  9  1  0  0  0  0
  2 10  1  0  0  0  0
  3 11  1  0  0  0  0
  3 12  1  0  0  0  0
  4 13  1  0  0  0  0
  4 14  1  0  0  0  0
  5 15  1  0  0  0  0
M  END
