 xtb: 6.7.1 (edcfbbe)
          04072502463D

 15 14  0     0  0            999 V2000
    2.0583    0.4826    0.3266 C   0  0  0  0  0  0  0  0  0  0  0  0
    1.0191   -0.0798   -0.6412 C   0  0  0  0  0  0  0  0  0  0  0  0
   -0.0000   -0.8318    0.0005 O   0  0  0  0  0  0  0  0  0  0  0  0
   -1.0191   -0.0791    0.6414 C   0  0  0  0  0  0  0  0  0  0  0  0
   -2.0582    0.4823   -0.3270 C   0  0  0  0  0  0  0  0  0  0  0  0
    2.4625   -0.3192    0.9388 H   0  0  0  0  0  0  0  0  0  0  0  0
    2.8638    0.9413   -0.2384 H   0  0  0  0  0  0  0  0  0  0  0  0
    1.6211    1.2334    0.9801 H   0  0  0  0  0  0  0  0  0  0  0  0
    1.4934   -0.7941   -1.3188 H   0  0  0  0  0  0  0  0  0  0  0  0
    0.5808    0.7287   -1.2381 H   0  0  0  0  0  0  0  0  0  0  0  0
   -1.4934   -0.7926    1.3198 H   0  0  0  0  0  0  0  0  0  0  0  0
   -0.5807    0.7300    1.2374 H   0  0  0  0  0  0  0  0  0  0  0  0
   -2.8638    0.9417    0.2375 H   0  0  0  0  0  0  0  0  0  0  0  0
   -1.6211    1.2325   -0.9814 H   0  0  0  0  0  0  0  0  0  0  0  0
   -2.4625   -0.3201   -0.9384 H   0  0  0  0  0  0  0  0  0  0  0  0
  1  2  1  0  0  0  0
  2  3  1  0  0  0  0
  3  4  1  0  0  0  0
  4  5  1  0  0  0  0
  1  6  1  0  0  0  0
  1  7  1  0  0  0  0
  1  8  1  0  0  0  0
  2  9  1  0  0  0  0
  2 10  1  0  0  0  0
  4 11  1  0  0  0  0
  4 12  1  0  0  0  0
  5 13  1  0  0  0  0
  5 14  1  0  0  0  0
  5 15  1  0  0  0  0
M  END
