 xtb: 6.7.1 (edcfbbe)
          04072502423D

 15 14  0     0  0            999 V2000
    1.9693    0.5726    0.3194 C   0  0  0  0  0  0  0  0  0  0  0  0
    1.0222   -0.1420   -0.6425 C   0  0  0  0  0  0  0  0  0  0  0  0
   -0.0000   -0.8886    0.0002 O   0  0  0  0  0  0  0  0  0  0  0  0
   -1.0222   -0.1414    0.6425 C   0  0  0  0  0  0  0  0  0  0  0  0
   -1.9694    0.5723   -0.3198 C   0  0  0  0  0  0  0  0  0  0  0  0
    2.8083    0.9743   -0.2403 H   0  0  0  0  0  0  0  0  0  0  0  0
    1.4701    1.3925    0.8297 H   0  0  0  0  0  0  0  0  0  0  0  0
    2.3402   -0.1295    1.0619 H   0  0  0  0  0  0  0  0  0  0  0  0
    1.5726   -0.8950   -1.2118 H   0  0  0  0  0  0  0  0  0  0  0  0
    0.5862    0.5762   -1.3474 H   0  0  0  0  0  0  0  0  0  0  0  0
   -1.5723   -0.8938    1.2129 H   0  0  0  0  0  0  0  0  0  0  0  0
   -0.5858    0.5776    1.3466 H   0  0  0  0  0  0  0  0  0  0  0  0
   -2.8075    0.9758    0.2400 H   0  0  0  0  0  0  0  0  0  0  0  0
   -1.4699    1.3909   -0.8317 H   0  0  0  0  0  0  0  0  0  0  0  0
   -2.3414   -0.1306   -1.0608 H   0  0  0  0  0  0  0  0  0  0  0  0
  1  2  1  0  0  0  0
  2  3  1  0  0  0  0
  3  4  1  0  0  0  0
  4  5  1  0  0  0  0
  1  6  1  0  0  0  0
  1  7  1  0  0  0  0
  1  8  1  0  0  0  0
  2  9  1  0  0  0  0
  2 10  1  0  0  0  0
  4 11  1  0  0  0  0
  4 12  1  0  0  0  0
  5 13  1  0  0  0  0
  5 14  1  0  0  0  0
  5 15  1  0  0  0  0
M  END
