 xtb: 6.7.1 (edcfbbe)
          04072502523D

 15 14  0     0  0            999 V2000
    2.3775    0.4151   -0.0061 C   0  0  0  0  0  0  0  0  0  0  0  0
    1.1818   -0.5164    0.1065 C   0  0  0  0  0  0  0  0  0  0  0  0
   -0.0015    0.2431   -0.0465 O   0  0  0  0  0  0  0  0  0  0  0  0
   -1.1838   -0.5287    0.0360 C   0  0  0  0  0  0  0  0  0  0  0  0
   -2.3807    0.3923   -0.1351 C   0  0  0  0  0  0  0  0  0  0  0  0
    3.2963   -0.1503    0.1123 H   0  0  0  0  0  0  0  0  0  0  0  0
    2.3739    0.9011   -0.9774 H   0  0  0  0  0  0  0  0  0  0  0  0
    2.3207    1.1794    0.7634 H   0  0  0  0  0  0  0  0  0  0  0  0
    1.1725   -1.0179    1.0872 H   0  0  0  0  0  0  0  0  0  0  0  0
    1.2226   -1.2947   -0.6717 H   0  0  0  0  0  0  0  0  0  0  0  0
   -1.1742   -1.3012   -0.7490 H   0  0  0  0  0  0  0  0  0  0  0  0
   -1.2234   -1.0378    1.0119 H   0  0  0  0  0  0  0  0  0  0  0  0
   -3.2988   -0.1834   -0.0765 H   0  0  0  0  0  0  0  0  0  0  0  0
   -2.3767    1.1480    0.6450 H   0  0  0  0  0  0  0  0  0  0  0  0
   -2.3259    0.8898   -1.0990 H   0  0  0  0  0  0  0  0  0  0  0  0
  1  2  1  0  0  0  0
  2  3  1  0  0  0  0
  3  4  1  0  0  0  0
  4  5  1  0  0  0  0
  1  6  1  0  0  0  0
  1  7  1  0  0  0  0
  1  8  1  0  0  0  0
  2  9  1  0  0  0  0
  2 10  1  0  0  0  0
  4 11  1  0  0  0  0
  4 12  1  0  0  0  0
  5 13  1  0  0  0  0
  5 14  1  0  0  0  0
  5 15  1  0  0  0  0
M  END
