 xtb: 6.7.1 (edcfbbe)
          04072502463D

 15 14  0     0  0            999 V2000
    1.8787    0.6470    0.2994 C   0  0  0  0  0  0  0  0  0  0  0  0
    1.0235   -0.1964   -0.6431 C   0  0  0  0  0  0  0  0  0  0  0  0
   -0.0000   -0.9412    0.0000 O   0  0  0  0  0  0  0  0  0  0  0  0
   -1.0236   -0.1962    0.6429 C   0  0  0  0  0  0  0  0  0  0  0  0
   -1.8789    0.6468   -0.2999 C   0  0  0  0  0  0  0  0  0  0  0  0
    1.3175    1.4905    0.6934 H   0  0  0  0  0  0  0  0  0  0  0  0
    2.2285    0.0374    1.1288 H   0  0  0  0  0  0  0  0  0  0  0  0
    2.7362    1.0283   -0.2465 H   0  0  0  0  0  0  0  0  0  0  0  0
    1.6391   -0.9666   -1.1141 H   0  0  0  0  0  0  0  0  0  0  0  0
    0.5955    0.4354   -1.4317 H   0  0  0  0  0  0  0  0  0  0  0  0
   -1.6391   -0.9662    1.1143 H   0  0  0  0  0  0  0  0  0  0  0  0
   -0.5956    0.4359    1.4312 H   0  0  0  0  0  0  0  0  0  0  0  0
   -1.3177    1.4900   -0.6943 H   0  0  0  0  0  0  0  0  0  0  0  0
   -2.2287    0.0367   -1.1290 H   0  0  0  0  0  0  0  0  0  0  0  0
   -2.7363    1.0283    0.2459 H   0  0  0  0  0  0  0  0  0  0  0  0
  1  2  1  0  0  0  0
  2  3  1  0  0  0  0
  3  4  1  0  0  0  0
  4  5  1  0  0  0  0
  1  6  1  0  0  0  0
  1  7  1  0  0  0  0
  1  8  1  0  0  0  0
  2  9  1  0  0  0  0
  2 10  1  0  0  0  0
  4 11  1  0  0  0  0
  4 12  1  0  0  0  0
  5 13  1  0  0  0  0
  5 14  1  0  0  0  0
  5 15  1  0  0  0  0
M  END
