 xtb: 6.7.1 (edcfbbe)
          04072502423D

 15 14  0     0  0            999 V2000
    1.6616    0.8368    0.3562 C   0  0  0  0  0  0  0  0  0  0  0  0
    1.2620   -0.5607   -0.1103 C   0  0  0  0  0  0  0  0  0  0  0  0
   -0.0325   -0.6530   -0.6758 O   0  0  0  0  0  0  0  0  0  0  0  0
   -1.1275   -0.5203    0.2210 C   0  0  0  0  0  0  0  0  0  0  0  0
   -1.7633    0.8674    0.1915 C   0  0  0  0  0  0  0  0  0  0  0  0
    1.4895    1.5564   -0.4398 H   0  0  0  0  0  0  0  0  0  0  0  0
    1.0924    1.1330    1.2335 H   0  0  0  0  0  0  0  0  0  0  0  0
    2.7170    0.8375    0.6125 H   0  0  0  0  0  0  0  0  0  0  0  0
    1.3501   -1.2721    0.7243 H   0  0  0  0  0  0  0  0  0  0  0  0
    1.9234   -0.8856   -0.9175 H   0  0  0  0  0  0  0  0  0  0  0  0
   -1.8646   -1.2599   -0.1111 H   0  0  0  0  0  0  0  0  0  0  0  0
   -0.8110   -0.7796    1.2384 H   0  0  0  0  0  0  0  0  0  0  0  0
   -2.6622    0.8635    0.8011 H   0  0  0  0  0  0  0  0  0  0  0  0
   -1.0824    1.6233    0.5709 H   0  0  0  0  0  0  0  0  0  0  0  0
   -2.0283    1.1224   -0.8310 H   0  0  0  0  0  0  0  0  0  0  0  0
  1  2  1  0  0  0  0
  2  3  1  0  0  0  0
  3  4  1  0  0  0  0
  4  5  1  0  0  0  0
  1  6  1  0  0  0  0
  1  7  1  0  0  0  0
  1  8  1  0  0  0  0
  2  9  1  0  0  0  0
  2 10  1  0  0  0  0
  4 11  1  0  0  0  0
  4 12  1  0  0  0  0
  5 13  1  0  0  0  0
  5 14  1  0  0  0  0
  5 15  1  0  0  0  0
M  END
