 xtb: 6.7.1 (edcfbbe)
          04062522383D

 15 14  0     0  0            999 V2000
    2.0471   -0.5861   -0.2433 C   0  0  0  0  0  0  0  0  0  0  0  0
    1.1232    0.2296    0.6551 C   0  0  0  0  0  0  0  0  0  0  0  0
    0.0167    0.9516   -0.1185 C   0  0  0  0  0  0  0  0  0  0  0  0
   -1.0663    0.0250   -0.6776 C   0  0  0  0  0  0  0  0  0  0  0  0
   -1.9391   -0.4824    0.3121 O   0  0  0  0  0  0  0  0  0  0  0  0
    2.8400   -1.0393    0.3466 H   0  0  0  0  0  0  0  0  0  0  0  0
    1.5064   -1.3810   -0.7505 H   0  0  0  0  0  0  0  0  0  0  0  0
    2.5016    0.0526   -0.9971 H   0  0  0  0  0  0  0  0  0  0  0  0
    0.6840   -0.4210    1.4145 H   0  0  0  0  0  0  0  0  0  0  0  0
    1.7176    0.9805    1.1796 H   0  0  0  0  0  0  0  0  0  0  0  0
   -0.4712    1.6748    0.5385 H   0  0  0  0  0  0  0  0  0  0  0  0
    0.4605    1.4976   -0.9521 H   0  0  0  0  0  0  0  0  0  0  0  0
   -1.7114    0.5860   -1.3583 H   0  0  0  0  0  0  0  0  0  0  0  0
   -0.6145   -0.8021   -1.2396 H   0  0  0  0  0  0  0  0  0  0  0  0
   -1.4238   -0.9916    0.9526 H   0  0  0  0  0  0  0  0  0  0  0  0
  1  2  1  0  0  0  0
  2  3  1  0  0  0  0
  3  4  1  0  0  0  0
  4  5  1  0  0  0  0
  1  6  1  0  0  0  0
  1  7  1  0  0  0  0
  1  8  1  0  0  0  0
  2  9  1  0  0  0  0
  2 10  1  0  0  0  0
  3 11  1  0  0  0  0
  3 12  1  0  0  0  0
  4 13  1  0  0  0  0
  4 14  1  0  0  0  0
  5 15  1  0  0  0  0
M  END
