 xtb: 6.7.1 (edcfbbe)
          04072502463D

 15 14  0     0  0            999 V2000
    2.0579    0.4831    0.3268 C   0  0  0  0  0  0  0  0  0  0  0  0
    1.0191   -0.0797   -0.6412 C   0  0  0  0  0  0  0  0  0  0  0  0
   -0.0000   -0.8318    0.0003 O   0  0  0  0  0  0  0  0  0  0  0  0
   -1.0192   -0.0793    0.6412 C   0  0  0  0  0  0  0  0  0  0  0  0
   -2.0580    0.4828   -0.3272 C   0  0  0  0  0  0  0  0  0  0  0  0
    2.8636    0.9417   -0.2382 H   0  0  0  0  0  0  0  0  0  0  0  0
    1.6205    1.2341    0.9799 H   0  0  0  0  0  0  0  0  0  0  0  0
    2.4621   -0.3185    0.9394 H   0  0  0  0  0  0  0  0  0  0  0  0
    1.4938   -0.7940   -1.3185 H   0  0  0  0  0  0  0  0  0  0  0  0
    0.5808    0.7285   -1.2384 H   0  0  0  0  0  0  0  0  0  0  0  0
   -1.4938   -0.7930    1.3191 H   0  0  0  0  0  0  0  0  0  0  0  0
   -0.5808    0.7295    1.2379 H   0  0  0  0  0  0  0  0  0  0  0  0
   -1.6206    1.2333   -0.9808 H   0  0  0  0  0  0  0  0  0  0  0  0
   -2.4621   -0.3193   -0.9392 H   0  0  0  0  0  0  0  0  0  0  0  0
   -2.8636    0.9418    0.2374 H   0  0  0  0  0  0  0  0  0  0  0  0
  1  2  1  0  0  0  0
  2  3  1  0  0  0  0
  3  4  1  0  0  0  0
  4  5  1  0  0  0  0
  1  6  1  0  0  0  0
  1  7  1  0  0  0  0
  1  8  1  0  0  0  0
  2  9  1  0  0  0  0
  2 10  1  0  0  0  0
  4 11  1  0  0  0  0
  4 12  1  0  0  0  0
  5 13  1  0  0  0  0
  5 14  1  0  0  0  0
  5 15  1  0  0  0  0
M  END
