 xtb: 6.7.1 (edcfbbe)
          04062522343D

 15 14  0     0  0            999 V2000
    1.6614   -0.6944   -0.5631 C   0  0  0  0  0  0  0  0  0  0  0  0
    1.3663    0.5374    0.2865 C   0  0  0  0  0  0  0  0  0  0  0  0
   -0.0272    0.5322    0.9189 C   0  0  0  0  0  0  0  0  0  0  0  0
   -1.1777    0.5422   -0.0962 C   0  0  0  0  0  0  0  0  0  0  0  0
   -1.6667   -0.7453   -0.4160 O   0  0  0  0  0  0  0  0  0  0  0  0
    2.7002   -0.6855   -0.8847 H   0  0  0  0  0  0  0  0  0  0  0  0
    1.4914   -1.6035    0.0096 H   0  0  0  0  0  0  0  0  0  0  0  0
    1.0402   -0.7113   -1.4556 H   0  0  0  0  0  0  0  0  0  0  0  0
    2.1031    0.5984    1.0902 H   0  0  0  0  0  0  0  0  0  0  0  0
    1.4742    1.4340   -0.3279 H   0  0  0  0  0  0  0  0  0  0  0  0
   -0.1447   -0.3463    1.5570 H   0  0  0  0  0  0  0  0  0  0  0  0
   -0.1187    1.4158    1.5520 H   0  0  0  0  0  0  0  0  0  0  0  0
   -2.0422    1.0636    0.3215 H   0  0  0  0  0  0  0  0  0  0  0  0
   -0.8712    1.0679   -1.0110 H   0  0  0  0  0  0  0  0  0  0  0  0
   -0.9412   -1.2790   -0.7683 H   0  0  0  0  0  0  0  0  0  0  0  0
  1  2  1  0  0  0  0
  2  3  1  0  0  0  0
  3  4  1  0  0  0  0
  4  5  1  0  0  0  0
  1  6  1  0  0  0  0
  1  7  1  0  0  0  0
  1  8  1  0  0  0  0
  2  9  1  0  0  0  0
  2 10  1  0  0  0  0
  3 11  1  0  0  0  0
  3 12  1  0  0  0  0
  4 13  1  0  0  0  0
  4 14  1  0  0  0  0
  5 15  1  0  0  0  0
M  END
