 xtb: 6.7.1 (edcfbbe)
          04072502463D

 15 14  0     0  0            999 V2000
    1.9792    0.5630    0.3162 C   0  0  0  0  0  0  0  0  0  0  0  0
    1.0204   -0.1368   -0.6448 C   0  0  0  0  0  0  0  0  0  0  0  0
   -0.0000   -0.8840    0.0004 O   0  0  0  0  0  0  0  0  0  0  0  0
   -1.0204   -0.1363    0.6449 C   0  0  0  0  0  0  0  0  0  0  0  0
   -1.9792    0.5628   -0.3165 C   0  0  0  0  0  0  0  0  0  0  0  0
    2.3548   -0.1493    1.0464 H   0  0  0  0  0  0  0  0  0  0  0  0
    2.8139    0.9690   -0.2467 H   0  0  0  0  0  0  0  0  0  0  0  0
    1.4876    1.3780    0.8413 H   0  0  0  0  0  0  0  0  0  0  0  0
    1.5619   -0.8869   -1.2264 H   0  0  0  0  0  0  0  0  0  0  0  0
    0.5819    0.5906   -1.3386 H   0  0  0  0  0  0  0  0  0  0  0  0
   -1.5620   -0.8859    1.2271 H   0  0  0  0  0  0  0  0  0  0  0  0
   -0.5819    0.5917    1.3382 H   0  0  0  0  0  0  0  0  0  0  0  0
   -2.3548   -0.1500   -1.0462 H   0  0  0  0  0  0  0  0  0  0  0  0
   -2.8139    0.9693    0.2461 H   0  0  0  0  0  0  0  0  0  0  0  0
   -1.4876    1.3774   -0.8423 H   0  0  0  0  0  0  0  0  0  0  0  0
  1  2  1  0  0  0  0
  2  3  1  0  0  0  0
  3  4  1  0  0  0  0
  4  5  1  0  0  0  0
  1  6  1  0  0  0  0
  1  7  1  0  0  0  0
  1  8  1  0  0  0  0
  2  9  1  0  0  0  0
  2 10  1  0  0  0  0
  4 11  1  0  0  0  0
  4 12  1  0  0  0  0
  5 13  1  0  0  0  0
  5 14  1  0  0  0  0
  5 15  1  0  0  0  0
M  END
