 xtb: 6.7.1 (edcfbbe)
          04072502463D

 15 14  0     0  0            999 V2000
    2.1062    0.3731   -0.4775 C   0  0  0  0  0  0  0  0  0  0  0  0
    1.2368   -0.5283    0.3965 C   0  0  0  0  0  0  0  0  0  0  0  0
   -0.0677   -0.0303    0.6253 O   0  0  0  0  0  0  0  0  0  0  0  0
   -0.9339   -0.0783   -0.4968 C   0  0  0  0  0  0  0  0  0  0  0  0
   -2.3401    0.2666   -0.0319 C   0  0  0  0  0  0  0  0  0  0  0  0
    3.1244   -0.0035   -0.4769 H   0  0  0  0  0  0  0  0  0  0  0  0
    1.7435    0.3932   -1.5020 H   0  0  0  0  0  0  0  0  0  0  0  0
    2.1009    1.3854   -0.0818 H   0  0  0  0  0  0  0  0  0  0  0  0
    1.6715   -0.6091    1.3957 H   0  0  0  0  0  0  0  0  0  0  0  0
    1.1744   -1.5340   -0.0458 H   0  0  0  0  0  0  0  0  0  0  0  0
   -0.6046    0.6376   -1.2623 H   0  0  0  0  0  0  0  0  0  0  0  0
   -0.9089   -1.0884   -0.9335 H   0  0  0  0  0  0  0  0  0  0  0  0
   -2.6657   -0.4462    0.7203 H   0  0  0  0  0  0  0  0  0  0  0  0
   -2.3465    1.2597    0.4077 H   0  0  0  0  0  0  0  0  0  0  0  0
   -3.0231    0.2402   -0.8751 H   0  0  0  0  0  0  0  0  0  0  0  0
  1  2  1  0  0  0  0
  2  3  1  0  0  0  0
  3  4  1  0  0  0  0
  4  5  1  0  0  0  0
  1  6  1  0  0  0  0
  1  7  1  0  0  0  0
  1  8  1  0  0  0  0
  2  9  1  0  0  0  0
  2 10  1  0  0  0  0
  4 11  1  0  0  0  0
  4 12  1  0  0  0  0
  5 13  1  0  0  0  0
  5 14  1  0  0  0  0
  5 15  1  0  0  0  0
M  END
