 xtb: 6.7.1 (edcfbbe)
          04072502423D

 15 14  0     0  0            999 V2000
    2.3839    0.4112   -0.0002 C   0  0  0  0  0  0  0  0  0  0  0  0
    1.1834   -0.5360    0.0004 C   0  0  0  0  0  0  0  0  0  0  0  0
   -0.0006    0.2404   -0.0001 O   0  0  0  0  0  0  0  0  0  0  0  0
   -1.1851   -0.5318   -0.0004 C   0  0  0  0  0  0  0  0  0  0  0  0
   -2.3795    0.4080    0.0003 C   0  0  0  0  0  0  0  0  0  0  0  0
    3.0031    0.2605    0.8779 H   0  0  0  0  0  0  0  0  0  0  0  0
    2.9920    0.2735   -0.8881 H   0  0  0  0  0  0  0  0  0  0  0  0
    2.0091    1.4310    0.0095 H   0  0  0  0  0  0  0  0  0  0  0  0
    1.1869   -1.1862    0.8887 H   0  0  0  0  0  0  0  0  0  0  0  0
    1.1871   -1.1872   -0.8869 H   0  0  0  0  0  0  0  0  0  0  0  0
   -1.2022   -1.1792   -0.8915 H   0  0  0  0  0  0  0  0  0  0  0  0
   -1.2020   -1.1800    0.8901 H   0  0  0  0  0  0  0  0  0  0  0  0
   -3.2997   -0.1675   -0.0005 H   0  0  0  0  0  0  0  0  0  0  0  0
   -2.3483    1.0401    0.8829 H   0  0  0  0  0  0  0  0  0  0  0  0
   -2.3480    1.0418   -0.8812 H   0  0  0  0  0  0  0  0  0  0  0  0
  1  2  1  0  0  0  0
  2  3  1  0  0  0  0
  3  4  1  0  0  0  0
  4  5  1  0  0  0  0
  1  6  1  0  0  0  0
  1  7  1  0  0  0  0
  1  8  1  0  0  0  0
  2  9  1  0  0  0  0
  2 10  1  0  0  0  0
  4 11  1  0  0  0  0
  4 12  1  0  0  0  0
  5 13  1  0  0  0  0
  5 14  1  0  0  0  0
  5 15  1  0  0  0  0
M  END
