 xtb: 6.7.1 (edcfbbe)
          04062522343D

 15 14  0     0  0            999 V2000
    1.6263   -0.8471    0.3729 C   0  0  0  0  0  0  0  0  0  0  0  0
    1.3154    0.5914   -0.0225 C   0  0  0  0  0  0  0  0  0  0  0  0
    0.0097    0.7272   -0.8076 C   0  0  0  0  0  0  0  0  0  0  0  0
   -1.2497    0.5318    0.0365 C   0  0  0  0  0  0  0  0  0  0  0  0
   -1.4588   -0.8428    0.3012 O   0  0  0  0  0  0  0  0  0  0  0  0
    1.7494   -1.4639   -0.5146 H   0  0  0  0  0  0  0  0  0  0  0  0
    2.5434   -0.8916    0.9557 H   0  0  0  0  0  0  0  0  0  0  0  0
    0.8146   -1.2642    0.9615 H   0  0  0  0  0  0  0  0  0  0  0  0
    1.2589    1.2129    0.8742 H   0  0  0  0  0  0  0  0  0  0  0  0
    2.1311    0.9746   -0.6399 H   0  0  0  0  0  0  0  0  0  0  0  0
   -0.0393    1.7266   -1.2434 H   0  0  0  0  0  0  0  0  0  0  0  0
   -0.0070   -0.0032   -1.6181 H   0  0  0  0  0  0  0  0  0  0  0  0
   -1.1508    1.0881    0.9791 H   0  0  0  0  0  0  0  0  0  0  0  0
   -2.1105    0.9346   -0.5154 H   0  0  0  0  0  0  0  0  0  0  0  0
   -2.2825   -0.9520    0.7936 H   0  0  0  0  0  0  0  0  0  0  0  0
  1  2  1  0  0  0  0
  2  3  1  0  0  0  0
  3  4  1  0  0  0  0
  4  5  1  0  0  0  0
  1  6  1  0  0  0  0
  1  7  1  0  0  0  0
  1  8  1  0  0  0  0
  2  9  1  0  0  0  0
  2 10  1  0  0  0  0
  3 11  1  0  0  0  0
  3 12  1  0  0  0  0
  4 13  1  0  0  0  0
  4 14  1  0  0  0  0
  5 15  1  0  0  0  0
M  END
