 xtb: 6.7.1 (edcfbbe)
          04062522313D

 15 14  0     0  0            999 V2000
    2.4158   -0.3049   -0.1566 C   0  0  0  0  0  0  0  0  0  0  0  0
    1.0234    0.2763   -0.3658 C   0  0  0  0  0  0  0  0  0  0  0  0
    0.0619   -0.1411    0.7447 C   0  0  0  0  0  0  0  0  0  0  0  0
   -1.3469    0.3974    0.5115 C   0  0  0  0  0  0  0  0  0  0  0  0
   -1.8921   -0.2175   -0.6408 O   0  0  0  0  0  0  0  0  0  0  0  0
    2.8305    0.0327    0.7906 H   0  0  0  0  0  0  0  0  0  0  0  0
    2.3769   -1.3916   -0.1461 H   0  0  0  0  0  0  0  0  0  0  0  0
    3.0825    0.0078   -0.9562 H   0  0  0  0  0  0  0  0  0  0  0  0
    1.0836    1.3667   -0.3975 H   0  0  0  0  0  0  0  0  0  0  0  0
    0.6197   -0.0646   -1.3209 H   0  0  0  0  0  0  0  0  0  0  0  0
    0.0092   -1.2304    0.7873 H   0  0  0  0  0  0  0  0  0  0  0  0
    0.4209    0.2265    1.7073 H   0  0  0  0  0  0  0  0  0  0  0  0
   -1.9728    0.1757    1.3869 H   0  0  0  0  0  0  0  0  0  0  0  0
   -1.3067    1.4870    0.3762 H   0  0  0  0  0  0  0  0  0  0  0  0
   -2.7799    0.1279   -0.7997 H   0  0  0  0  0  0  0  0  0  0  0  0
  1  2  1  0  0  0  0
  2  3  1  0  0  0  0
  3  4  1  0  0  0  0
  4  5  1  0  0  0  0
  1  6  1  0  0  0  0
  1  7  1  0  0  0  0
  1  8  1  0  0  0  0
  2  9  1  0  0  0  0
  2 10  1  0  0  0  0
  3 11  1  0  0  0  0
  3 12  1  0  0  0  0
  4 13  1  0  0  0  0
  4 14  1  0  0  0  0
  5 15  1  0  0  0  0
M  END
