 xtb: 6.7.1 (edcfbbe)
          04072502423D

 15 14  0     0  0            999 V2000
    1.8888    0.6396    0.3159 C   0  0  0  0  0  0  0  0  0  0  0  0
    1.0279   -0.1880   -0.6357 C   0  0  0  0  0  0  0  0  0  0  0  0
    0.0001   -0.9326    0.0006 O   0  0  0  0  0  0  0  0  0  0  0  0
   -1.0281   -0.1875    0.6358 C   0  0  0  0  0  0  0  0  0  0  0  0
   -1.8887    0.6393   -0.3165 C   0  0  0  0  0  0  0  0  0  0  0  0
    1.3342    1.4838    0.7179 H   0  0  0  0  0  0  0  0  0  0  0  0
    2.2325    0.0185    1.1396 H   0  0  0  0  0  0  0  0  0  0  0  0
    2.7501    1.0189   -0.2255 H   0  0  0  0  0  0  0  0  0  0  0  0
    1.6384   -0.9571   -1.1150 H   0  0  0  0  0  0  0  0  0  0  0  0
    0.6038    0.4547   -1.4175 H   0  0  0  0  0  0  0  0  0  0  0  0
   -1.6393   -0.9561    1.1150 H   0  0  0  0  0  0  0  0  0  0  0  0
   -0.6048    0.4561    1.4173 H   0  0  0  0  0  0  0  0  0  0  0  0
   -1.3345    1.4843   -0.7168 H   0  0  0  0  0  0  0  0  0  0  0  0
   -2.2303    0.0183   -1.1410 H   0  0  0  0  0  0  0  0  0  0  0  0
   -2.7511    1.0175    0.2234 H   0  0  0  0  0  0  0  0  0  0  0  0
  1  2  1  0  0  0  0
  2  3  1  0  0  0  0
  3  4  1  0  0  0  0
  4  5  1  0  0  0  0
  1  6  1  0  0  0  0
  1  7  1  0  0  0  0
  1  8  1  0  0  0  0
  2  9  1  0  0  0  0
  2 10  1  0  0  0  0
  4 11  1  0  0  0  0
  4 12  1  0  0  0  0
  5 13  1  0  0  0  0
  5 14  1  0  0  0  0
  5 15  1  0  0  0  0
M  END
