 xtb: 6.7.1 (edcfbbe)
          04072502423D

 15 14  0     0  0            999 V2000
    2.3793    0.4070    0.0001 C   0  0  0  0  0  0  0  0  0  0  0  0
    1.1835   -0.5312   -0.0002 C   0  0  0  0  0  0  0  0  0  0  0  0
    0.0000    0.2429    0.0001 O   0  0  0  0  0  0  0  0  0  0  0  0
   -1.1835   -0.5312    0.0002 C   0  0  0  0  0  0  0  0  0  0  0  0
   -2.3793    0.4070   -0.0001 C   0  0  0  0  0  0  0  0  0  0  0  0
    2.3488    1.0397    0.8823 H   0  0  0  0  0  0  0  0  0  0  0  0
    3.2989   -0.1694   -0.0005 H   0  0  0  0  0  0  0  0  0  0  0  0
    2.3483    1.0407   -0.8815 H   0  0  0  0  0  0  0  0  0  0  0  0
    1.1995   -1.1794    0.8902 H   0  0  0  0  0  0  0  0  0  0  0  0
    1.1994   -1.1789   -0.8910 H   0  0  0  0  0  0  0  0  0  0  0  0
   -1.1994   -1.1792   -0.8904 H   0  0  0  0  0  0  0  0  0  0  0  0
   -1.1995   -1.1791    0.8908 H   0  0  0  0  0  0  0  0  0  0  0  0
   -2.3486    1.0402    0.8817 H   0  0  0  0  0  0  0  0  0  0  0  0
   -2.3485    1.0402   -0.8820 H   0  0  0  0  0  0  0  0  0  0  0  0
   -3.2989   -0.1694   -0.0002 H   0  0  0  0  0  0  0  0  0  0  0  0
  1  2  1  0  0  0  0
  2  3  1  0  0  0  0
  3  4  1  0  0  0  0
  4  5  1  0  0  0  0
  1  6  1  0  0  0  0
  1  7  1  0  0  0  0
  1  8  1  0  0  0  0
  2  9  1  0  0  0  0
  2 10  1  0  0  0  0
  4 11  1  0  0  0  0
  4 12  1  0  0  0  0
  5 13  1  0  0  0  0
  5 14  1  0  0  0  0
  5 15  1  0  0  0  0
M  END
