 xtb: 6.7.1 (edcfbbe)
          04072502423D

 15 14  0     0  0            999 V2000
    2.0592    0.4829    0.3203 C   0  0  0  0  0  0  0  0  0  0  0  0
    1.0172   -0.0796   -0.6444 C   0  0  0  0  0  0  0  0  0  0  0  0
    0.0000   -0.8315    0.0004 O   0  0  0  0  0  0  0  0  0  0  0  0
   -1.0172   -0.0791    0.6444 C   0  0  0  0  0  0  0  0  0  0  0  0
   -2.0592    0.4826   -0.3207 C   0  0  0  0  0  0  0  0  0  0  0  0
    2.8623    0.9428   -0.2470 H   0  0  0  0  0  0  0  0  0  0  0  0
    1.6236    1.2329    0.9758 H   0  0  0  0  0  0  0  0  0  0  0  0
    2.4661   -0.3191    0.9306 H   0  0  0  0  0  0  0  0  0  0  0  0
    1.4895   -0.7939   -1.3233 H   0  0  0  0  0  0  0  0  0  0  0  0
    0.5771    0.7288   -1.2401 H   0  0  0  0  0  0  0  0  0  0  0  0
   -1.4896   -0.7928    1.3239 H   0  0  0  0  0  0  0  0  0  0  0  0
   -0.5771    0.7298    1.2395 H   0  0  0  0  0  0  0  0  0  0  0  0
   -1.6236    1.2322   -0.9768 H   0  0  0  0  0  0  0  0  0  0  0  0
   -2.4661   -0.3199   -0.9304 H   0  0  0  0  0  0  0  0  0  0  0  0
   -2.8624    0.9429    0.2463 H   0  0  0  0  0  0  0  0  0  0  0  0
  1  2  1  0  0  0  0
  2  3  1  0  0  0  0
  3  4  1  0  0  0  0
  4  5  1  0  0  0  0
  1  6  1  0  0  0  0
  1  7  1  0  0  0  0
  1  8  1  0  0  0  0
  2  9  1  0  0  0  0
  2 10  1  0  0  0  0
  4 11  1  0  0  0  0
  4 12  1  0  0  0  0
  5 13  1  0  0  0  0
  5 14  1  0  0  0  0
  5 15  1  0  0  0  0
M  END
