 xtb: 6.7.1 (edcfbbe)
          04062522313D

 15 14  0     0  0            999 V2000
    1.6300   -0.8507    0.3632 C   0  0  0  0  0  0  0  0  0  0  0  0
    1.3141    0.5888   -0.0247 C   0  0  0  0  0  0  0  0  0  0  0  0
    0.0071    0.7229   -0.8082 C   0  0  0  0  0  0  0  0  0  0  0  0
   -1.2504    0.5369    0.0410 C   0  0  0  0  0  0  0  0  0  0  0  0
   -1.4601   -0.8347    0.3205 O   0  0  0  0  0  0  0  0  0  0  0  0
    1.7695   -1.4592   -0.5275 H   0  0  0  0  0  0  0  0  0  0  0  0
    2.5394   -0.8938    0.9580 H   0  0  0  0  0  0  0  0  0  0  0  0
    0.8131   -1.2777    0.9374 H   0  0  0  0  0  0  0  0  0  0  0  0
    1.2555    1.2055    0.8751 H   0  0  0  0  0  0  0  0  0  0  0  0
    2.1283    0.9782   -0.6402 H   0  0  0  0  0  0  0  0  0  0  0  0
   -0.0408    1.7192   -1.2508 H   0  0  0  0  0  0  0  0  0  0  0  0
   -0.0133   -0.0132   -1.6134 H   0  0  0  0  0  0  0  0  0  0  0  0
   -1.1484    1.1027    0.9776 H   0  0  0  0  0  0  0  0  0  0  0  0
   -2.1123    0.9349   -0.5127 H   0  0  0  0  0  0  0  0  0  0  0  0
   -2.2815   -0.9375    0.8180 H   0  0  0  0  0  0  0  0  0  0  0  0
  1  2  1  0  0  0  0
  2  3  1  0  0  0  0
  3  4  1  0  0  0  0
  4  5  1  0  0  0  0
  1  6  1  0  0  0  0
  1  7  1  0  0  0  0
  1  8  1  0  0  0  0
  2  9  1  0  0  0  0
  2 10  1  0  0  0  0
  3 11  1  0  0  0  0
  3 12  1  0  0  0  0
  4 13  1  0  0  0  0
  4 14  1  0  0  0  0
  5 15  1  0  0  0  0
M  END
