 xtb: 6.7.1 (edcfbbe)
          04062522313D

 15 14  0     0  0            999 V2000
    2.5573   -0.3523    0.0020 C   0  0  0  0  0  0  0  0  0  0  0  0
    1.3024    0.5120    0.0299 C   0  0  0  0  0  0  0  0  0  0  0  0
    0.0350   -0.3362   -0.0174 C   0  0  0  0  0  0  0  0  0  0  0  0
   -1.2269    0.5197    0.0231 C   0  0  0  0  0  0  0  0  0  0  0  0
   -2.3562   -0.3312   -0.0350 O   0  0  0  0  0  0  0  0  0  0  0  0
    2.5857   -0.9520   -0.9045 H   0  0  0  0  0  0  0  0  0  0  0  0
    3.4485    0.2693    0.0327 H   0  0  0  0  0  0  0  0  0  0  0  0
    2.5752   -1.0238    0.8570 H   0  0  0  0  0  0  0  0  0  0  0  0
    1.2972    1.1170    0.9392 H   0  0  0  0  0  0  0  0  0  0  0  0
    1.3109    1.1942   -0.8228 H   0  0  0  0  0  0  0  0  0  0  0  0
    0.0167   -0.9347   -0.9301 H   0  0  0  0  0  0  0  0  0  0  0  0
    0.0114   -1.0251    0.8290 H   0  0  0  0  0  0  0  0  0  0  0  0
   -1.2422    1.1082    0.9510 H   0  0  0  0  0  0  0  0  0  0  0  0
   -1.2302    1.2132   -0.8290 H   0  0  0  0  0  0  0  0  0  0  0  0
   -3.1625    0.2013   -0.0159 H   0  0  0  0  0  0  0  0  0  0  0  0
  1  2  1  0  0  0  0
  2  3  1  0  0  0  0
  3  4  1  0  0  0  0
  4  5  1  0  0  0  0
  1  6  1  0  0  0  0
  1  7  1  0  0  0  0
  1  8  1  0  0  0  0
  2  9  1  0  0  0  0
  2 10  1  0  0  0  0
  3 11  1  0  0  0  0
  3 12  1  0  0  0  0
  4 13  1  0  0  0  0
  4 14  1  0  0  0  0
  5 15  1  0  0  0  0
M  END
