 xtb: 6.7.1 (edcfbbe)
          04072502423D

 15 14  0     0  0            999 V2000
    1.9021    0.6290   -0.3171 C   0  0  0  0  0  0  0  0  0  0  0  0
    1.0272   -0.1807    0.6369 C   0  0  0  0  0  0  0  0  0  0  0  0
   -0.0001   -0.9258    0.0004 O   0  0  0  0  0  0  0  0  0  0  0  0
   -1.0268   -0.1805   -0.6369 C   0  0  0  0  0  0  0  0  0  0  0  0
   -1.9025    0.6291    0.3166 C   0  0  0  0  0  0  0  0  0  0  0  0
    2.2495   -0.0054   -1.1285 H   0  0  0  0  0  0  0  0  0  0  0  0
    1.3567    1.4709   -0.7360 H   0  0  0  0  0  0  0  0  0  0  0  0
    2.7606    1.0107    0.2269 H   0  0  0  0  0  0  0  0  0  0  0  0
    0.6011    0.4753    1.4061 H   0  0  0  0  0  0  0  0  0  0  0  0
    1.6283   -0.9476    1.1315 H   0  0  0  0  0  0  0  0  0  0  0  0
   -0.6004    0.4751   -1.4066 H   0  0  0  0  0  0  0  0  0  0  0  0
   -1.6280   -0.9475   -1.1311 H   0  0  0  0  0  0  0  0  0  0  0  0
   -2.7602    1.0118   -0.2280 H   0  0  0  0  0  0  0  0  0  0  0  0
   -2.2511   -0.0051    1.1280 H   0  0  0  0  0  0  0  0  0  0  0  0
   -1.3565    1.4702    0.7361 H   0  0  0  0  0  0  0  0  0  0  0  0
  1  2  1  0  0  0  0
  2  3  1  0  0  0  0
  3  4  1  0  0  0  0
  4  5  1  0  0  0  0
  1  6  1  0  0  0  0
  1  7  1  0  0  0  0
  1  8  1  0  0  0  0
  2  9  1  0  0  0  0
  2 10  1  0  0  0  0
  4 11  1  0  0  0  0
  4 12  1  0  0  0  0
  5 13  1  0  0  0  0
  5 14  1  0  0  0  0
  5 15  1  0  0  0  0
M  END
