 xtb: 6.7.1 (edcfbbe)
          04072500463D

 15 15  0     0  0            999 V2000
   -2.4748    0.3728    0.3409 C   0  0  0  0  0  0  0  0  0  0  0  0
   -1.9527   -0.9013    0.4894 C   0  0  0  0  0  0  0  0  0  0  0  0
   -0.6506   -1.1707    0.1027 C   0  0  0  0  0  0  0  0  0  0  0  0
    0.1143   -0.1501   -0.4362 C   0  0  0  0  0  0  0  0  0  0  0  0
   -0.3935    1.1290   -0.5873 C   0  0  0  0  0  0  0  0  0  0  0  0
   -1.6969    1.3847   -0.1964 C   0  0  0  0  0  0  0  0  0  0  0  0
    1.4307   -0.4290   -0.8730 O   0  0  0  0  0  0  0  0  0  0  0  0
    2.4219   -0.2684   -0.0281 C   0  0  0  0  0  0  0  0  0  0  0  0
    2.3474    0.1011    1.1140 O   0  0  0  0  0  0  0  0  0  0  0  0
   -3.4889    0.5777    0.6452 H   0  0  0  0  0  0  0  0  0  0  0  0
   -2.5552   -1.6900    0.9110 H   0  0  0  0  0  0  0  0  0  0  0  0
   -0.2256   -2.1558    0.2136 H   0  0  0  0  0  0  0  0  0  0  0  0
    0.2286    1.9053   -1.0038 H   0  0  0  0  0  0  0  0  0  0  0  0
   -2.0997    2.3786   -0.3097 H   0  0  0  0  0  0  0  0  0  0  0  0
    3.3670   -0.5288   -0.5281 H   0  0  0  0  0  0  0  0  0  0  0  0
  1  2  4  0  0  0  0
  2  3  4  0  0  0  0
  3  4  4  0  0  0  0
  4  5  4  0  0  0  0
  1  6  4  0  0  0  0
  5  6  4  0  0  0  0
  4  7  1  0  0  0  0
  7  8  1  0  0  0  0
  8  9  2  0  0  0  0
  1 10  1  0  0  0  0
  2 11  1  0  0  0  0
  3 12  1  0  0  0  0
  5 13  1  0  0  0  0
  6 14  1  0  0  0  0
  8 15  1  0  0  0  0
M  END
