 xtb: 6.7.1 (edcfbbe)
          04062522313D

 15 14  0     0  0            999 V2000
    2.5670   -0.3173   -0.0100 C   0  0  0  0  0  0  0  0  0  0  0  0
    1.2968    0.5254    0.0034 C   0  0  0  0  0  0  0  0  0  0  0  0
    0.0435   -0.3461    0.0019 C   0  0  0  0  0  0  0  0  0  0  0  0
   -1.2317    0.4961    0.0304 C   0  0  0  0  0  0  0  0  0  0  0  0
   -2.4095   -0.2781   -0.0658 O   0  0  0  0  0  0  0  0  0  0  0  0
    3.4470    0.3207   -0.0131 H   0  0  0  0  0  0  0  0  0  0  0  0
    2.6092   -0.9577    0.8679 H   0  0  0  0  0  0  0  0  0  0  0  0
    2.5956   -0.9476   -0.8957 H   0  0  0  0  0  0  0  0  0  0  0  0
    1.2908    1.1622    0.8907 H   0  0  0  0  0  0  0  0  0  0  0  0
    1.2826    1.1776   -0.8721 H   0  0  0  0  0  0  0  0  0  0  0  0
    0.0293   -0.9718   -0.8931 H   0  0  0  0  0  0  0  0  0  0  0  0
    0.0608   -1.0053    0.8735 H   0  0  0  0  0  0  0  0  0  0  0  0
   -1.2563    1.1099    0.9419 H   0  0  0  0  0  0  0  0  0  0  0  0
   -1.2585    1.1665   -0.8324 H   0  0  0  0  0  0  0  0  0  0  0  0
   -2.4362   -0.9051    0.6705 H   0  0  0  0  0  0  0  0  0  0  0  0
  1  2  1  0  0  0  0
  2  3  1  0  0  0  0
  3  4  1  0  0  0  0
  4  5  1  0  0  0  0
  1  6  1  0  0  0  0
  1  7  1  0  0  0  0
  1  8  1  0  0  0  0
  2  9  1  0  0  0  0
  2 10  1  0  0  0  0
  3 11  1  0  0  0  0
  3 12  1  0  0  0  0
  4 13  1  0  0  0  0
  4 14  1  0  0  0  0
  5 15  1  0  0  0  0
M  END
