 xtb: 6.7.1 (edcfbbe)
          04072502463D

 15 14  0     0  0            999 V2000
    1.9546    0.5838    0.3107 C   0  0  0  0  0  0  0  0  0  0  0  0
    1.0205   -0.1545   -0.6456 C   0  0  0  0  0  0  0  0  0  0  0  0
   -0.0000   -0.9004    0.0006 O   0  0  0  0  0  0  0  0  0  0  0  0
   -1.0205   -0.1536    0.6460 C   0  0  0  0  0  0  0  0  0  0  0  0
   -1.9545    0.5837   -0.3112 C   0  0  0  0  0  0  0  0  0  0  0  0
    2.7966    0.9789   -0.2492 H   0  0  0  0  0  0  0  0  0  0  0  0
    1.4466    1.4110    0.7998 H   0  0  0  0  0  0  0  0  0  0  0  0
    2.3225   -0.1015    1.0702 H   0  0  0  0  0  0  0  0  0  0  0  0
    1.5809   -0.9119   -1.1991 H   0  0  0  0  0  0  0  0  0  0  0  0
    0.5831    0.5485   -1.3652 H   0  0  0  0  0  0  0  0  0  0  0  0
   -1.5810   -0.9103    1.2003 H   0  0  0  0  0  0  0  0  0  0  0  0
   -0.5830    0.5501    1.3647 H   0  0  0  0  0  0  0  0  0  0  0  0
   -2.7965    0.9796    0.2483 H   0  0  0  0  0  0  0  0  0  0  0  0
   -1.4464    1.4103   -0.8013 H   0  0  0  0  0  0  0  0  0  0  0  0
   -2.3225   -0.1025   -1.0699 H   0  0  0  0  0  0  0  0  0  0  0  0
  1  2  1  0  0  0  0
  2  3  1  0  0  0  0
  3  4  1  0  0  0  0
  4  5  1  0  0  0  0
  1  6  1  0  0  0  0
  1  7  1  0  0  0  0
  1  8  1  0  0  0  0
  2  9  1  0  0  0  0
  2 10  1  0  0  0  0
  4 11  1  0  0  0  0
  4 12  1  0  0  0  0
  5 13  1  0  0  0  0
  5 14  1  0  0  0  0
  5 15  1  0  0  0  0
M  END
