 xtb: 6.7.1 (edcfbbe)
          04072503323D

 20 21  0     0  0            999 V2000
   -4.5182   -0.8010   -0.0007 C   0  0  0  0  0  0  0  0  0  0  0  0
   -3.0893   -0.8356   -0.0008 O   0  0  0  0  0  0  0  0  0  0  0  0
   -2.4552    0.3272    0.0003 C   0  0  0  0  0  0  0  0  0  0  0  0
   -3.0230    1.4011    0.0011 O   0  0  0  0  0  0  0  0  0  0  0  0
   -0.9736    0.1778    0.0002 C   0  0  0  0  0  0  0  0  0  0  0  0
   -0.1955    1.3356   -0.0005 C   0  0  0  0  0  0  0  0  0  0  0  0
    1.1811    1.2432   -0.0007 C   0  0  0  0  0  0  0  0  0  0  0  0
    1.7712   -0.0183   -0.0000 C   0  0  0  0  0  0  0  0  0  0  0  0
    1.0045   -1.1812    0.0008 C   0  0  0  0  0  0  0  0  0  0  0  0
   -0.3723   -1.0808    0.0009 C   0  0  0  0  0  0  0  0  0  0  0  0
    3.1988   -0.1223   -0.0001 N   0  0  0  0  0  0  0  0  0  0  0  0
    3.6972   -1.2340   -0.0002 O   0  0  0  0  0  0  0  0  0  0  0  0
    3.8533    0.9053   -0.0000 O   0  0  0  0  0  0  0  0  0  0  0  0
   -4.8786   -0.2580   -0.8752 H   0  0  0  0  0  0  0  0  0  0  0  0
   -4.8790   -0.3016    0.8991 H   0  0  0  0  0  0  0  0  0  0  0  0
   -4.8360   -1.8383   -0.0259 H   0  0  0  0  0  0  0  0  0  0  0  0
   -0.6911    2.2937   -0.0010 H   0  0  0  0  0  0  0  0  0  0  0  0
    1.8069    2.1217   -0.0013 H   0  0  0  0  0  0  0  0  0  0  0  0
    1.4998   -2.1396    0.0013 H   0  0  0  0  0  0  0  0  0  0  0  0
   -0.9865   -1.9661    0.0015 H   0  0  0  0  0  0  0  0  0  0  0  0
  1  2  1  0  0  0  0
  2  3  1  0  0  0  0
  3  4  2  0  0  0  0
  3  5  1  0  0  0  0
  5  6  4  0  0  0  0
  6  7  4  0  0  0  0
  7  8  4  0  0  0  0
  8  9  4  0  0  0  0
  5 10  4  0  0  0  0
  9 10  4  0  0  0  0
  8 11  1  0  0  0  0
 11 12  4  0  0  0  0
 11 13  4  0  0  0  0
 12 13  1  0  0  0  0
  1 14  1  0  0  0  0
  1 15  1  0  0  0  0
  1 16  1  0  0  0  0
  6 17  1  0  0  0  0
  7 18  1  0  0  0  0
  9 19  1  0  0  0  0
 10 20  1  0  0  0  0
M  END
