 xtb: 6.7.1 (edcfbbe)
          04072501043D

 15 15  0     0  0            999 V2000
   -2.7145    0.1317   -0.0846 C   0  0  0  0  0  0  0  0  0  0  0  0
   -1.9890   -1.0001   -0.4150 C   0  0  0  0  0  0  0  0  0  0  0  0
   -0.6119   -1.0193   -0.2622 C   0  0  0  0  0  0  0  0  0  0  0  0
    0.0279    0.1132    0.2183 C   0  0  0  0  0  0  0  0  0  0  0  0
   -0.6908    1.2493    0.5630 C   0  0  0  0  0  0  0  0  0  0  0  0
   -2.0657    1.2524    0.4092 C   0  0  0  0  0  0  0  0  0  0  0  0
    1.4117    0.1497    0.4216 O   0  0  0  0  0  0  0  0  0  0  0  0
    2.2288   -0.3584   -0.4742 C   0  0  0  0  0  0  0  0  0  0  0  0
    3.4194   -0.4057   -0.3153 O   0  0  0  0  0  0  0  0  0  0  0  0
   -3.7860    0.1381   -0.2049 H   0  0  0  0  0  0  0  0  0  0  0  0
   -2.4916   -1.8784   -0.7875 H   0  0  0  0  0  0  0  0  0  0  0  0
   -0.0468   -1.9094   -0.4926 H   0  0  0  0  0  0  0  0  0  0  0  0
   -0.1623    2.1081    0.9433 H   0  0  0  0  0  0  0  0  0  0  0  0
   -2.6282    2.1331    0.6742 H   0  0  0  0  0  0  0  0  0  0  0  0
    1.7391   -0.7280   -1.3945 H   0  0  0  0  0  0  0  0  0  0  0  0
  1  2  4  0  0  0  0
  2  3  4  0  0  0  0
  3  4  4  0  0  0  0
  4  5  4  0  0  0  0
  1  6  4  0  0  0  0
  5  6  4  0  0  0  0
  4  7  1  0  0  0  0
  7  8  1  0  0  0  0
  8  9  2  0  0  0  0
  1 10  1  0  0  0  0
  2 11  1  0  0  0  0
  3 12  1  0  0  0  0
  5 13  1  0  0  0  0
  6 14  1  0  0  0  0
  8 15  1  0  0  0  0
M  END
