 xtb: 6.7.1 (edcfbbe)
          04072502463D

 15 14  0     0  0            999 V2000
    1.8817    0.6434   -0.2959 C   0  0  0  0  0  0  0  0  0  0  0  0
    1.0219   -0.1968    0.6454 C   0  0  0  0  0  0  0  0  0  0  0  0
   -0.0001   -0.9417   -0.0000 O   0  0  0  0  0  0  0  0  0  0  0  0
   -1.0220   -0.1968   -0.6455 C   0  0  0  0  0  0  0  0  0  0  0  0
   -1.8817    0.6437    0.2956 C   0  0  0  0  0  0  0  0  0  0  0  0
    2.2340    0.0312   -1.1224 H   0  0  0  0  0  0  0  0  0  0  0  0
    1.3230    1.4864   -0.6942 H   0  0  0  0  0  0  0  0  0  0  0  0
    2.7375    1.0251    0.2523 H   0  0  0  0  0  0  0  0  0  0  0  0
    0.5918    0.4373    1.4309 H   0  0  0  0  0  0  0  0  0  0  0  0
    1.6349   -0.9667    1.1204 H   0  0  0  0  0  0  0  0  0  0  0  0
   -0.5918    0.4371   -1.4312 H   0  0  0  0  0  0  0  0  0  0  0  0
   -1.6351   -0.9666   -1.1204 H   0  0  0  0  0  0  0  0  0  0  0  0
   -2.7374    1.0254   -0.2527 H   0  0  0  0  0  0  0  0  0  0  0  0
   -2.2340    0.0317    1.1223 H   0  0  0  0  0  0  0  0  0  0  0  0
   -1.3228    1.4867    0.6938 H   0  0  0  0  0  0  0  0  0  0  0  0
  1  2  1  0  0  0  0
  2  3  1  0  0  0  0
  3  4  1  0  0  0  0
  4  5  1  0  0  0  0
  1  6  1  0  0  0  0
  1  7  1  0  0  0  0
  1  8  1  0  0  0  0
  2  9  1  0  0  0  0
  2 10  1  0  0  0  0
  4 11  1  0  0  0  0
  4 12  1  0  0  0  0
  5 13  1  0  0  0  0
  5 14  1  0  0  0  0
  5 15  1  0  0  0  0
M  END
