 xtb: 6.7.1 (edcfbbe)
          04072500463D

 15 15  0     0  0            999 V2000
   -2.7145    0.1369   -0.0872 C   0  0  0  0  0  0  0  0  0  0  0  0
   -1.9912   -0.9963   -0.4179 C   0  0  0  0  0  0  0  0  0  0  0  0
   -0.6142   -1.0187   -0.2638 C   0  0  0  0  0  0  0  0  0  0  0  0
    0.0277    0.1118    0.2183 C   0  0  0  0  0  0  0  0  0  0  0  0
   -0.6888    1.2494    0.5630 C   0  0  0  0  0  0  0  0  0  0  0  0
   -2.0635    1.2558    0.4079 C   0  0  0  0  0  0  0  0  0  0  0  0
    1.4112    0.1446    0.4243 O   0  0  0  0  0  0  0  0  0  0  0  0
    2.2290   -0.3654   -0.4697 C   0  0  0  0  0  0  0  0  0  0  0  0
    3.4190   -0.4171   -0.3072 O   0  0  0  0  0  0  0  0  0  0  0  0
   -3.7858    0.1458   -0.2083 H   0  0  0  0  0  0  0  0  0  0  0  0
   -2.4955   -1.8732   -0.7914 H   0  0  0  0  0  0  0  0  0  0  0  0
   -0.0510   -1.9100   -0.4944 H   0  0  0  0  0  0  0  0  0  0  0  0
   -0.1590    2.1069    0.9444 H   0  0  0  0  0  0  0  0  0  0  0  0
   -2.6242    2.1376    0.6730 H   0  0  0  0  0  0  0  0  0  0  0  0
    1.7408   -0.7321   -1.3921 H   0  0  0  0  0  0  0  0  0  0  0  0
  1  2  4  0  0  0  0
  2  3  4  0  0  0  0
  3  4  4  0  0  0  0
  4  5  4  0  0  0  0
  1  6  4  0  0  0  0
  5  6  4  0  0  0  0
  4  7  1  0  0  0  0
  7  8  1  0  0  0  0
  8  9  2  0  0  0  0
  1 10  1  0  0  0  0
  2 11  1  0  0  0  0
  3 12  1  0  0  0  0
  5 13  1  0  0  0  0
  6 14  1  0  0  0  0
  8 15  1  0  0  0  0
M  END
