 xtb: 6.7.1 (edcfbbe)
          04072502463D

 15 14  0     0  0            999 V2000
    2.0591    0.4825   -0.3282 C   0  0  0  0  0  0  0  0  0  0  0  0
    1.0194   -0.0764    0.6409 C   0  0  0  0  0  0  0  0  0  0  0  0
    0.0000   -0.8296    0.0009 O   0  0  0  0  0  0  0  0  0  0  0  0
   -1.0194   -0.0778   -0.6405 C   0  0  0  0  0  0  0  0  0  0  0  0
   -2.0592    0.4829    0.3275 C   0  0  0  0  0  0  0  0  0  0  0  0
    2.4641   -0.3216   -0.9371 H   0  0  0  0  0  0  0  0  0  0  0  0
    1.6222    1.2306   -0.9850 H   0  0  0  0  0  0  0  0  0  0  0  0
    2.8641    0.9437    0.2356 H   0  0  0  0  0  0  0  0  0  0  0  0
    0.5813    0.7341    1.2352 H   0  0  0  0  0  0  0  0  0  0  0  0
    1.4930   -0.7889    1.3209 H   0  0  0  0  0  0  0  0  0  0  0  0
   -0.5814    0.7316   -1.2364 H   0  0  0  0  0  0  0  0  0  0  0  0
   -1.4930   -0.7916   -1.3191 H   0  0  0  0  0  0  0  0  0  0  0  0
   -2.8642    0.9429   -0.2372 H   0  0  0  0  0  0  0  0  0  0  0  0
   -2.4641   -0.3201    0.9379 H   0  0  0  0  0  0  0  0  0  0  0  0
   -1.6224    1.2323    0.9829 H   0  0  0  0  0  0  0  0  0  0  0  0
  1  2  1  0  0  0  0
  2  3  1  0  0  0  0
  3  4  1  0  0  0  0
  4  5  1  0  0  0  0
  1  6  1  0  0  0  0
  1  7  1  0  0  0  0
  1  8  1  0  0  0  0
  2  9  1  0  0  0  0
  2 10  1  0  0  0  0
  4 11  1  0  0  0  0
  4 12  1  0  0  0  0
  5 13  1  0  0  0  0
  5 14  1  0  0  0  0
  5 15  1  0  0  0  0
M  END
