 xtb: 6.7.1 (edcfbbe)
          04062522383D

 15 14  0     0  0            999 V2000
    2.5572   -0.3527    0.0008 C   0  0  0  0  0  0  0  0  0  0  0  0
    1.3029    0.5122    0.0327 C   0  0  0  0  0  0  0  0  0  0  0  0
    0.0351   -0.3352   -0.0162 C   0  0  0  0  0  0  0  0  0  0  0  0
   -1.2272    0.5202    0.0201 C   0  0  0  0  0  0  0  0  0  0  0  0
   -2.3556   -0.3323   -0.0324 O   0  0  0  0  0  0  0  0  0  0  0  0
    2.5854   -0.9477   -0.9089 H   0  0  0  0  0  0  0  0  0  0  0  0
    3.4489    0.2679    0.0352 H   0  0  0  0  0  0  0  0  0  0  0  0
    2.5741   -1.0289    0.8522 H   0  0  0  0  0  0  0  0  0  0  0  0
    1.2987    1.1143    0.9438 H   0  0  0  0  0  0  0  0  0  0  0  0
    1.3111    1.1972   -0.8179 H   0  0  0  0  0  0  0  0  0  0  0  0
    0.0186   -0.9350   -0.9280 H   0  0  0  0  0  0  0  0  0  0  0  0
    0.0098   -1.0230    0.8311 H   0  0  0  0  0  0  0  0  0  0  0  0
   -1.2434    1.1149    0.9439 H   0  0  0  0  0  0  0  0  0  0  0  0
   -1.2311    1.2083   -0.8366 H   0  0  0  0  0  0  0  0  0  0  0  0
   -3.1621    0.1995   -0.0105 H   0  0  0  0  0  0  0  0  0  0  0  0
  1  2  1  0  0  0  0
  2  3  1  0  0  0  0
  3  4  1  0  0  0  0
  4  5  1  0  0  0  0
  1  6  1  0  0  0  0
  1  7  1  0  0  0  0
  1  8  1  0  0  0  0
  2  9  1  0  0  0  0
  2 10  1  0  0  0  0
  3 11  1  0  0  0  0
  3 12  1  0  0  0  0
  4 13  1  0  0  0  0
  4 14  1  0  0  0  0
  5 15  1  0  0  0  0
M  END
