 xtb: 6.7.1 (edcfbbe)
          04072501043D

 15 15  0     0  0            999 V2000
   -2.5184    0.3762    0.2562 C   0  0  0  0  0  0  0  0  0  0  0  0
   -2.1220   -0.9475    0.3655 C   0  0  0  0  0  0  0  0  0  0  0  0
   -0.8033   -1.2967    0.1417 C   0  0  0  0  0  0  0  0  0  0  0  0
    0.1170   -0.3106   -0.1909 C   0  0  0  0  0  0  0  0  0  0  0  0
   -0.2691    1.0147   -0.3114 C   0  0  0  0  0  0  0  0  0  0  0  0
   -1.5944    1.3492   -0.0825 C   0  0  0  0  0  0  0  0  0  0  0  0
    1.4227   -0.7636   -0.4409 O   0  0  0  0  0  0  0  0  0  0  0  0
    2.4962   -0.0508   -0.1969 C   0  0  0  0  0  0  0  0  0  0  0  0
    2.5695    1.0532    0.2764 O   0  0  0  0  0  0  0  0  0  0  0  0
   -3.5470    0.6481    0.4326 H   0  0  0  0  0  0  0  0  0  0  0  0
   -2.8386   -1.7100    0.6257 H   0  0  0  0  0  0  0  0  0  0  0  0
   -0.4691   -2.3187    0.2187 H   0  0  0  0  0  0  0  0  0  0  0  0
    0.4496    1.7734   -0.5753 H   0  0  0  0  0  0  0  0  0  0  0  0
   -1.8992    2.3797   -0.1735 H   0  0  0  0  0  0  0  0  0  0  0  0
    3.3781   -0.6416   -0.4911 H   0  0  0  0  0  0  0  0  0  0  0  0
  1  2  4  0  0  0  0
  2  3  4  0  0  0  0
  3  4  4  0  0  0  0
  4  5  4  0  0  0  0
  1  6  4  0  0  0  0
  5  6  4  0  0  0  0
  4  7  1  0  0  0  0
  7  8  1  0  0  0  0
  8  9  2  0  0  0  0
  1 10  1  0  0  0  0
  2 11  1  0  0  0  0
  3 12  1  0  0  0  0
  5 13  1  0  0  0  0
  6 14  1  0  0  0  0
  8 15  1  0  0  0  0
M  END
