 xtb: 6.7.1 (edcfbbe)
          04072502463D

 15 14  0     0  0            999 V2000
    1.8924    0.6302   -0.2816 C   0  0  0  0  0  0  0  0  0  0  0  0
    1.0163   -0.1996    0.6539 C   0  0  0  0  0  0  0  0  0  0  0  0
   -0.0000   -0.9443   -0.0004 O   0  0  0  0  0  0  0  0  0  0  0  0
   -1.0163   -0.1991   -0.6543 C   0  0  0  0  0  0  0  0  0  0  0  0
   -1.8923    0.6303    0.2817 C   0  0  0  0  0  0  0  0  0  0  0  0
    1.3421    1.4713   -0.6955 H   0  0  0  0  0  0  0  0  0  0  0  0
    2.7410    1.0144    0.2759 H   0  0  0  0  0  0  0  0  0  0  0  0
    2.2550    0.0099   -1.0975 H   0  0  0  0  0  0  0  0  0  0  0  0
    0.5787    0.4419    1.4292 H   0  0  0  0  0  0  0  0  0  0  0  0
    1.6196   -0.9686    1.1425 H   0  0  0  0  0  0  0  0  0  0  0  0
   -0.5786    0.4427   -1.4293 H   0  0  0  0  0  0  0  0  0  0  0  0
   -1.6197   -0.9679   -1.1432 H   0  0  0  0  0  0  0  0  0  0  0  0
   -2.7410    1.0148   -0.2756 H   0  0  0  0  0  0  0  0  0  0  0  0
   -2.2549    0.0097    1.0974 H   0  0  0  0  0  0  0  0  0  0  0  0
   -1.3419    1.4711    0.6959 H   0  0  0  0  0  0  0  0  0  0  0  0
  1  2  1  0  0  0  0
  2  3  1  0  0  0  0
  3  4  1  0  0  0  0
  4  5  1  0  0  0  0
  1  6  1  0  0  0  0
  1  7  1  0  0  0  0
  1  8  1  0  0  0  0
  2  9  1  0  0  0  0
  2 10  1  0  0  0  0
  4 11  1  0  0  0  0
  4 12  1  0  0  0  0
  5 13  1  0  0  0  0
  5 14  1  0  0  0  0
  5 15  1  0  0  0  0
M  END
