 xtb: 6.7.1 (edcfbbe)
          04072502463D

 15 14  0     0  0            999 V2000
    1.6656    0.8208    0.3799 C   0  0  0  0  0  0  0  0  0  0  0  0
    1.2625   -0.5649   -0.1175 C   0  0  0  0  0  0  0  0  0  0  0  0
   -0.0339   -0.6412   -0.6808 O   0  0  0  0  0  0  0  0  0  0  0  0
   -1.1248   -0.5070    0.2216 C   0  0  0  0  0  0  0  0  0  0  0  0
   -1.7709    0.8752    0.1730 C   0  0  0  0  0  0  0  0  0  0  0  0
    1.5085    1.5568   -0.4042 H   0  0  0  0  0  0  0  0  0  0  0  0
    1.0868    1.1043    1.2552 H   0  0  0  0  0  0  0  0  0  0  0  0
    2.7175    0.8093    0.6497 H   0  0  0  0  0  0  0  0  0  0  0  0
    1.3512   -1.2951    0.7007 H   0  0  0  0  0  0  0  0  0  0  0  0
    1.9209   -0.8730   -0.9335 H   0  0  0  0  0  0  0  0  0  0  0  0
   -1.8581   -1.2583   -0.0923 H   0  0  0  0  0  0  0  0  0  0  0  0
   -0.7990   -0.7463    1.2406 H   0  0  0  0  0  0  0  0  0  0  0  0
   -2.6576    0.8801    0.8002 H   0  0  0  0  0  0  0  0  0  0  0  0
   -1.0868    1.6433    0.5211 H   0  0  0  0  0  0  0  0  0  0  0  0
   -2.0574    1.1052   -0.8496 H   0  0  0  0  0  0  0  0  0  0  0  0
  1  2  1  0  0  0  0
  2  3  1  0  0  0  0
  3  4  1  0  0  0  0
  4  5  1  0  0  0  0
  1  6  1  0  0  0  0
  1  7  1  0  0  0  0
  1  8  1  0  0  0  0
  2  9  1  0  0  0  0
  2 10  1  0  0  0  0
  4 11  1  0  0  0  0
  4 12  1  0  0  0  0
  5 13  1  0  0  0  0
  5 14  1  0  0  0  0
  5 15  1  0  0  0  0
M  END
