 xtb: 6.7.1 (edcfbbe)
          04062522383D

 15 14  0     0  0            999 V2000
    2.1484   -0.2973    0.5923 C   0  0  0  0  0  0  0  0  0  0  0  0
    1.3906    0.5137   -0.4535 C   0  0  0  0  0  0  0  0  0  0  0  0
   -0.0077   -0.0323   -0.7421 C   0  0  0  0  0  0  0  0  0  0  0  0
   -0.9641    0.1155    0.4423 C   0  0  0  0  0  0  0  0  0  0  0  0
   -2.3019   -0.1940    0.1037 O   0  0  0  0  0  0  0  0  0  0  0  0
    1.6617   -0.2358    1.5618 H   0  0  0  0  0  0  0  0  0  0  0  0
    2.2029   -1.3427    0.2972 H   0  0  0  0  0  0  0  0  0  0  0  0
    3.1618    0.0818    0.6975 H   0  0  0  0  0  0  0  0  0  0  0  0
    1.3101    1.5508   -0.1218 H   0  0  0  0  0  0  0  0  0  0  0  0
    1.9597    0.5070   -1.3854 H   0  0  0  0  0  0  0  0  0  0  0  0
   -0.4374    0.5096   -1.5878 H   0  0  0  0  0  0  0  0  0  0  0  0
    0.0658   -1.0867   -1.0196 H   0  0  0  0  0  0  0  0  0  0  0  0
   -0.6400   -0.5112    1.2826 H   0  0  0  0  0  0  0  0  0  0  0  0
   -0.9871    1.1560    0.7766 H   0  0  0  0  0  0  0  0  0  0  0  0
   -2.3440   -1.1103   -0.2032 H   0  0  0  0  0  0  0  0  0  0  0  0
  1  2  1  0  0  0  0
  2  3  1  0  0  0  0
  3  4  1  0  0  0  0
  4  5  1  0  0  0  0
  1  6  1  0  0  0  0
  1  7  1  0  0  0  0
  1  8  1  0  0  0  0
  2  9  1  0  0  0  0
  2 10  1  0  0  0  0
  3 11  1  0  0  0  0
  3 12  1  0  0  0  0
  4 13  1  0  0  0  0
  4 14  1  0  0  0  0
  5 15  1  0  0  0  0
M  END
