 xtb: 6.7.1 (edcfbbe)
          04072502463D

 15 14  0     0  0            999 V2000
    1.8894    0.6336    0.2850 C   0  0  0  0  0  0  0  0  0  0  0  0
    1.0177   -0.1989   -0.6522 C   0  0  0  0  0  0  0  0  0  0  0  0
    0.0000   -0.9440   -0.0002 O   0  0  0  0  0  0  0  0  0  0  0  0
   -1.0176   -0.1992    0.6521 C   0  0  0  0  0  0  0  0  0  0  0  0
   -1.8892    0.6339   -0.2846 C   0  0  0  0  0  0  0  0  0  0  0  0
    1.3368    1.4753    0.6946 H   0  0  0  0  0  0  0  0  0  0  0  0
    2.2491    0.0156    1.1039 H   0  0  0  0  0  0  0  0  0  0  0  0
    2.7400    1.0171   -0.2700 H   0  0  0  0  0  0  0  0  0  0  0  0
    1.6236   -0.9680   -1.1373 H   0  0  0  0  0  0  0  0  0  0  0  0
    0.5818    0.4406   -1.4301 H   0  0  0  0  0  0  0  0  0  0  0  0
   -1.6236   -0.9685    1.1368 H   0  0  0  0  0  0  0  0  0  0  0  0
   -0.5817    0.4399    1.4303 H   0  0  0  0  0  0  0  0  0  0  0  0
   -2.2490    0.0163   -1.1038 H   0  0  0  0  0  0  0  0  0  0  0  0
   -2.7399    1.0171    0.2705 H   0  0  0  0  0  0  0  0  0  0  0  0
   -1.3366    1.4758   -0.6938 H   0  0  0  0  0  0  0  0  0  0  0  0
  1  2  1  0  0  0  0
  2  3  1  0  0  0  0
  3  4  1  0  0  0  0
  4  5  1  0  0  0  0
  1  6  1  0  0  0  0
  1  7  1  0  0  0  0
  1  8  1  0  0  0  0
  2  9  1  0  0  0  0
  2 10  1  0  0  0  0
  4 11  1  0  0  0  0
  4 12  1  0  0  0  0
  5 13  1  0  0  0  0
  5 14  1  0  0  0  0
  5 15  1  0  0  0  0
M  END
