 xtb: 6.7.1 (edcfbbe)
          04062522383D

 15 14  0     0  0            999 V2000
    2.4169   -0.3026   -0.1555 C   0  0  0  0  0  0  0  0  0  0  0  0
    1.0223    0.2720   -0.3679 C   0  0  0  0  0  0  0  0  0  0  0  0
    0.0610   -0.1471    0.7421 C   0  0  0  0  0  0  0  0  0  0  0  0
   -1.3464    0.3970    0.5139 C   0  0  0  0  0  0  0  0  0  0  0  0
   -1.8963   -0.2088   -0.6411 O   0  0  0  0  0  0  0  0  0  0  0  0
    2.8295    0.0407    0.7907 H   0  0  0  0  0  0  0  0  0  0  0  0
    2.3825   -1.3895   -0.1403 H   0  0  0  0  0  0  0  0  0  0  0  0
    3.0829    0.0094   -0.9558 H   0  0  0  0  0  0  0  0  0  0  0  0
    1.0782    1.3626   -0.4014 H   0  0  0  0  0  0  0  0  0  0  0  0
    0.6214   -0.0720   -1.3231 H   0  0  0  0  0  0  0  0  0  0  0  0
    0.0054   -1.2364    0.7805 H   0  0  0  0  0  0  0  0  0  0  0  0
    0.4225    0.2157    1.7055 H   0  0  0  0  0  0  0  0  0  0  0  0
   -1.9716    0.1720    1.3891 H   0  0  0  0  0  0  0  0  0  0  0  0
   -1.3026    1.4871    0.3854 H   0  0  0  0  0  0  0  0  0  0  0  0
   -2.7794    0.1480   -0.8013 H   0  0  0  0  0  0  0  0  0  0  0  0
  1  2  1  0  0  0  0
  2  3  1  0  0  0  0
  3  4  1  0  0  0  0
  4  5  1  0  0  0  0
  1  6  1  0  0  0  0
  1  7  1  0  0  0  0
  1  8  1  0  0  0  0
  2  9  1  0  0  0  0
  2 10  1  0  0  0  0
  3 11  1  0  0  0  0
  3 12  1  0  0  0  0
  4 13  1  0  0  0  0
  4 14  1  0  0  0  0
  5 15  1  0  0  0  0
M  END
