 xtb: 6.7.1 (edcfbbe)
          04062522383D

 15 14  0     0  0            999 V2000
    2.1596   -0.2477   -0.5728 C   0  0  0  0  0  0  0  0  0  0  0  0
    1.3818    0.4329    0.5485 C   0  0  0  0  0  0  0  0  0  0  0  0
   -0.0314   -0.1196    0.7241 C   0  0  0  0  0  0  0  0  0  0  0  0
   -0.9519    0.1890   -0.4537 C   0  0  0  0  0  0  0  0  0  0  0  0
   -2.2628   -0.2267   -0.1145 O   0  0  0  0  0  0  0  0  0  0  0  0
    2.1825   -1.3239   -0.4190 H   0  0  0  0  0  0  0  0  0  0  0  0
    1.7074   -0.0465   -1.5402 H   0  0  0  0  0  0  0  0  0  0  0  0
    3.1831    0.1182   -0.5942 H   0  0  0  0  0  0  0  0  0  0  0  0
    1.9206    0.2926    1.4874 H   0  0  0  0  0  0  0  0  0  0  0  0
    1.3273    1.5063    0.3546 H   0  0  0  0  0  0  0  0  0  0  0  0
    0.0028   -1.2015    0.8647 H   0  0  0  0  0  0  0  0  0  0  0  0
   -0.4862    0.3139    1.6171 H   0  0  0  0  0  0  0  0  0  0  0  0
   -0.9386    1.2692   -0.6565 H   0  0  0  0  0  0  0  0  0  0  0  0
   -0.6121   -0.3420   -1.3514 H   0  0  0  0  0  0  0  0  0  0  0  0
   -2.8574   -0.0510   -0.8556 H   0  0  0  0  0  0  0  0  0  0  0  0
  1  2  1  0  0  0  0
  2  3  1  0  0  0  0
  3  4  1  0  0  0  0
  4  5  1  0  0  0  0
  1  6  1  0  0  0  0
  1  7  1  0  0  0  0
  1  8  1  0  0  0  0
  2  9  1  0  0  0  0
  2 10  1  0  0  0  0
  3 11  1  0  0  0  0
  3 12  1  0  0  0  0
  4 13  1  0  0  0  0
  4 14  1  0  0  0  0
  5 15  1  0  0  0  0
M  END
