 xtb: 6.7.1 (edcfbbe)
          04062522313D

 15 14  0     0  0            999 V2000
    1.6598   -0.6938   -0.5651 C   0  0  0  0  0  0  0  0  0  0  0  0
    1.3658    0.5388    0.2838 C   0  0  0  0  0  0  0  0  0  0  0  0
   -0.0264    0.5343    0.9191 C   0  0  0  0  0  0  0  0  0  0  0  0
   -1.1791    0.5395   -0.0935 C   0  0  0  0  0  0  0  0  0  0  0  0
   -1.6617   -0.7501   -0.4138 O   0  0  0  0  0  0  0  0  0  0  0  0
    2.6992   -0.6868   -0.8850 H   0  0  0  0  0  0  0  0  0  0  0  0
    1.4872   -1.6027    0.0073 H   0  0  0  0  0  0  0  0  0  0  0  0
    1.0403   -0.7098   -1.4587 H   0  0  0  0  0  0  0  0  0  0  0  0
    2.1041    0.6011    1.0860 H   0  0  0  0  0  0  0  0  0  0  0  0
    1.4723    1.4348   -0.3320 H   0  0  0  0  0  0  0  0  0  0  0  0
   -0.1416   -0.3424    1.5602 H   0  0  0  0  0  0  0  0  0  0  0  0
   -0.1176    1.4198    1.5495 H   0  0  0  0  0  0  0  0  0  0  0  0
   -2.0454    1.0559    0.3267 H   0  0  0  0  0  0  0  0  0  0  0  0
   -0.8772    1.0678   -1.0083 H   0  0  0  0  0  0  0  0  0  0  0  0
   -0.9326   -1.2805   -0.7635 H   0  0  0  0  0  0  0  0  0  0  0  0
  1  2  1  0  0  0  0
  2  3  1  0  0  0  0
  3  4  1  0  0  0  0
  4  5  1  0  0  0  0
  1  6  1  0  0  0  0
  1  7  1  0  0  0  0
  1  8  1  0  0  0  0
  2  9  1  0  0  0  0
  2 10  1  0  0  0  0
  3 11  1  0  0  0  0
  3 12  1  0  0  0  0
  4 13  1  0  0  0  0
  4 14  1  0  0  0  0
  5 15  1  0  0  0  0
M  END
