 xtb: 6.7.1 (edcfbbe)
          04062522313D

 15 14  0     0  0            999 V2000
    1.6097   -0.7652   -0.5216 C   0  0  0  0  0  0  0  0  0  0  0  0
    1.3230    0.5803    0.1351 C   0  0  0  0  0  0  0  0  0  0  0  0
    0.0098    0.5971    0.9197 C   0  0  0  0  0  0  0  0  0  0  0  0
   -1.2412    0.5221    0.0385 C   0  0  0  0  0  0  0  0  0  0  0  0
   -1.5000   -0.7543   -0.5087 O   0  0  0  0  0  0  0  0  0  0  0  0
    0.8028   -1.0383   -1.1963 H   0  0  0  0  0  0  0  0  0  0  0  0
    2.5359   -0.7187   -1.0896 H   0  0  0  0  0  0  0  0  0  0  0  0
    1.7091   -1.5429    0.2325 H   0  0  0  0  0  0  0  0  0  0  0  0
    2.1396    0.8263    0.8181 H   0  0  0  0  0  0  0  0  0  0  0  0
    1.2873    1.3574   -0.6316 H   0  0  0  0  0  0  0  0  0  0  0  0
    0.0007   -0.2326    1.6302 H   0  0  0  0  0  0  0  0  0  0  0  0
   -0.0475    1.5269    1.4885 H   0  0  0  0  0  0  0  0  0  0  0  0
   -2.1132    0.8550    0.6190 H   0  0  0  0  0  0  0  0  0  0  0  0
   -1.1322    1.1869   -0.8221 H   0  0  0  0  0  0  0  0  0  0  0  0
   -1.6458   -1.3804    0.2138 H   0  0  0  0  0  0  0  0  0  0  0  0
  1  2  1  0  0  0  0
  2  3  1  0  0  0  0
  3  4  1  0  0  0  0
  4  5  1  0  0  0  0
  1  6  1  0  0  0  0
  1  7  1  0  0  0  0
  1  8  1  0  0  0  0
  2  9  1  0  0  0  0
  2 10  1  0  0  0  0
  3 11  1  0  0  0  0
  3 12  1  0  0  0  0
  4 13  1  0  0  0  0
  4 14  1  0  0  0  0
  5 15  1  0  0  0  0
M  END
