 xtb: 6.7.1 (edcfbbe)
          04062522313D

 15 14  0     0  0            999 V2000
    2.4572   -0.2533   -0.1104 C   0  0  0  0  0  0  0  0  0  0  0  0
    1.0532    0.2826   -0.3654 C   0  0  0  0  0  0  0  0  0  0  0  0
    0.0630   -0.2205    0.6846 C   0  0  0  0  0  0  0  0  0  0  0  0
   -1.3423    0.3609    0.5129 C   0  0  0  0  0  0  0  0  0  0  0  0
   -2.0429   -0.1616   -0.5976 O   0  0  0  0  0  0  0  0  0  0  0  0
    3.1482    0.1127   -0.8657 H   0  0  0  0  0  0  0  0  0  0  0  0
    2.8144    0.0645    0.8664 H   0  0  0  0  0  0  0  0  0  0  0  0
    2.4603   -1.3404   -0.1386 H   0  0  0  0  0  0  0  0  0  0  0  0
    1.0735    1.3750   -0.3463 H   0  0  0  0  0  0  0  0  0  0  0  0
    0.7316   -0.0318   -1.3604 H   0  0  0  0  0  0  0  0  0  0  0  0
   -0.0023   -1.3094    0.6382 H   0  0  0  0  0  0  0  0  0  0  0  0
    0.4217    0.0553    1.6776 H   0  0  0  0  0  0  0  0  0  0  0  0
   -1.9576    0.1029    1.3783 H   0  0  0  0  0  0  0  0  0  0  0  0
   -1.2876    1.4561    0.4419 H   0  0  0  0  0  0  0  0  0  0  0  0
   -1.5602    0.0578   -1.4059 H   0  0  0  0  0  0  0  0  0  0  0  0
  1  2  1  0  0  0  0
  2  3  1  0  0  0  0
  3  4  1  0  0  0  0
  4  5  1  0  0  0  0
  1  6  1  0  0  0  0
  1  7  1  0  0  0  0
  1  8  1  0  0  0  0
  2  9  1  0  0  0  0
  2 10  1  0  0  0  0
  3 11  1  0  0  0  0
  3 12  1  0  0  0  0
  4 13  1  0  0  0  0
  4 14  1  0  0  0  0
  5 15  1  0  0  0  0
M  END
