 xtb: 6.7.1 (edcfbbe)
          04072502423D

 15 14  0     0  0            999 V2000
    2.1043    0.3780   -0.4750 C   0  0  0  0  0  0  0  0  0  0  0  0
    1.2377   -0.5315    0.3935 C   0  0  0  0  0  0  0  0  0  0  0  0
   -0.0683   -0.0388    0.6251 O   0  0  0  0  0  0  0  0  0  0  0  0
   -0.9352   -0.0866   -0.4964 C   0  0  0  0  0  0  0  0  0  0  0  0
   -2.3382    0.2712   -0.0323 C   0  0  0  0  0  0  0  0  0  0  0  0
    3.1239    0.0055   -0.4758 H   0  0  0  0  0  0  0  0  0  0  0  0
    1.7424    0.4027   -1.4996 H   0  0  0  0  0  0  0  0  0  0  0  0
    2.0948    1.3881   -0.0735 H   0  0  0  0  0  0  0  0  0  0  0  0
    1.6728   -0.6169    1.3923 H   0  0  0  0  0  0  0  0  0  0  0  0
    1.1787   -1.5348   -0.0546 H   0  0  0  0  0  0  0  0  0  0  0  0
   -0.6012    0.6227   -1.2659 H   0  0  0  0  0  0  0  0  0  0  0  0
   -0.9175   -1.0992   -0.9278 H   0  0  0  0  0  0  0  0  0  0  0  0
   -2.6680   -0.4343    0.7250 H   0  0  0  0  0  0  0  0  0  0  0  0
   -2.3366    1.2673    0.4009 H   0  0  0  0  0  0  0  0  0  0  0  0
   -3.0225    0.2444   -0.8744 H   0  0  0  0  0  0  0  0  0  0  0  0
  1  2  1  0  0  0  0
  2  3  1  0  0  0  0
  3  4  1  0  0  0  0
  4  5  1  0  0  0  0
  1  6  1  0  0  0  0
  1  7  1  0  0  0  0
  1  8  1  0  0  0  0
  2  9  1  0  0  0  0
  2 10  1  0  0  0  0
  4 11  1  0  0  0  0
  4 12  1  0  0  0  0
  5 13  1  0  0  0  0
  5 14  1  0  0  0  0
  5 15  1  0  0  0  0
M  END
