 xtb: 6.7.1 (edcfbbe)
          04062522383D

 15 14  0     0  0            999 V2000
    2.0337   -0.4798   -0.4065 C   0  0  0  0  0  0  0  0  0  0  0  0
    1.0772   -0.0367    0.6949 C   0  0  0  0  0  0  0  0  0  0  0  0
    0.0183    0.9541    0.2077 C   0  0  0  0  0  0  0  0  0  0  0  0
   -1.0725    0.2944   -0.6327 C   0  0  0  0  0  0  0  0  0  0  0  0
   -1.8133   -0.5908    0.1875 O   0  0  0  0  0  0  0  0  0  0  0  0
    2.5373    0.3814   -0.8405 H   0  0  0  0  0  0  0  0  0  0  0  0
    2.7868   -1.1508   -0.0011 H   0  0  0  0  0  0  0  0  0  0  0  0
    1.5052   -1.0043   -1.1982 H   0  0  0  0  0  0  0  0  0  0  0  0
    0.5689   -0.9052    1.1177 H   0  0  0  0  0  0  0  0  0  0  0  0
    1.6531    0.4349    1.4937 H   0  0  0  0  0  0  0  0  0  0  0  0
   -0.4649    1.4126    1.0722 H   0  0  0  0  0  0  0  0  0  0  0  0
    0.4879    1.7407   -0.3847 H   0  0  0  0  0  0  0  0  0  0  0  0
   -1.7345    1.0722   -1.0384 H   0  0  0  0  0  0  0  0  0  0  0  0
   -0.6249   -0.2515   -1.4725 H   0  0  0  0  0  0  0  0  0  0  0  0
   -2.4942   -1.0247   -0.3422 H   0  0  0  0  0  0  0  0  0  0  0  0
  1  2  1  0  0  0  0
  2  3  1  0  0  0  0
  3  4  1  0  0  0  0
  4  5  1  0  0  0  0
  1  6  1  0  0  0  0
  1  7  1  0  0  0  0
  1  8  1  0  0  0  0
  2  9  1  0  0  0  0
  2 10  1  0  0  0  0
  3 11  1  0  0  0  0
  3 12  1  0  0  0  0
  4 13  1  0  0  0  0
  4 14  1  0  0  0  0
  5 15  1  0  0  0  0
M  END
