 xtb: 6.7.1 (edcfbbe)
          04062522343D

 15 14  0     0  0            999 V2000
    1.6067   -0.7620   -0.5283 C   0  0  0  0  0  0  0  0  0  0  0  0
    1.3217    0.5834    0.1295 C   0  0  0  0  0  0  0  0  0  0  0  0
    0.0118    0.6003    0.9197 C   0  0  0  0  0  0  0  0  0  0  0  0
   -1.2431    0.5165    0.0451 C   0  0  0  0  0  0  0  0  0  0  0  0
   -1.4974   -0.7627   -0.4974 O   0  0  0  0  0  0  0  0  0  0  0  0
    0.8020   -1.0317   -1.2068 H   0  0  0  0  0  0  0  0  0  0  0  0
    2.5355   -0.7172   -1.0922 H   0  0  0  0  0  0  0  0  0  0  0  0
    1.7007   -1.5414    0.2249 H   0  0  0  0  0  0  0  0  0  0  0  0
    2.1407    0.8296    0.8096 H   0  0  0  0  0  0  0  0  0  0  0  0
    1.2829    1.3604   -0.6371 H   0  0  0  0  0  0  0  0  0  0  0  0
    0.0082   -0.2254    1.6350 H   0  0  0  0  0  0  0  0  0  0  0  0
   -0.0457    1.5331    1.4835 H   0  0  0  0  0  0  0  0  0  0  0  0
   -2.1139    0.8454    0.6298 H   0  0  0  0  0  0  0  0  0  0  0  0
   -1.1429    1.1799   -0.8175 H   0  0  0  0  0  0  0  0  0  0  0  0
   -1.6293   -1.3886    0.2279 H   0  0  0  0  0  0  0  0  0  0  0  0
  1  2  1  0  0  0  0
  2  3  1  0  0  0  0
  3  4  1  0  0  0  0
  4  5  1  0  0  0  0
  1  6  1  0  0  0  0
  1  7  1  0  0  0  0
  1  8  1  0  0  0  0
  2  9  1  0  0  0  0
  2 10  1  0  0  0  0
  3 11  1  0  0  0  0
  3 12  1  0  0  0  0
  4 13  1  0  0  0  0
  4 14  1  0  0  0  0
  5 15  1  0  0  0  0
M  END
