 xtb: 6.7.1 (edcfbbe)
          04062522383D

 15 14  0     0  0            999 V2000
    2.0221   -0.6745   -0.0110 C   0  0  0  0  0  0  0  0  0  0  0  0
    1.0949    0.4319   -0.5006 C   0  0  0  0  0  0  0  0  0  0  0  0
    0.0376    0.8217    0.5348 C   0  0  0  0  0  0  0  0  0  0  0  0
   -1.0973   -0.1999    0.6335 C   0  0  0  0  0  0  0  0  0  0  0  0
   -1.8300   -0.3347   -0.5668 O   0  0  0  0  0  0  0  0  0  0  0  0
    1.4660   -1.5860    0.1928 H   0  0  0  0  0  0  0  0  0  0  0  0
    2.7725   -0.8975   -0.7655 H   0  0  0  0  0  0  0  0  0  0  0  0
    2.5309   -0.3696    0.9011 H   0  0  0  0  0  0  0  0  0  0  0  0
    1.6927    1.3122   -0.7446 H   0  0  0  0  0  0  0  0  0  0  0  0
    0.5895    0.1053   -1.4118 H   0  0  0  0  0  0  0  0  0  0  0  0
    0.4996    0.9198    1.5181 H   0  0  0  0  0  0  0  0  0  0  0  0
   -0.3899    1.7907    0.2659 H   0  0  0  0  0  0  0  0  0  0  0  0
   -0.7003   -1.1957    0.8400 H   0  0  0  0  0  0  0  0  0  0  0  0
   -1.7715    0.0765    1.4562 H   0  0  0  0  0  0  0  0  0  0  0  0
   -2.2220    0.5206   -0.7915 H   0  0  0  0  0  0  0  0  0  0  0  0
  1  2  1  0  0  0  0
  2  3  1  0  0  0  0
  3  4  1  0  0  0  0
  4  5  1  0  0  0  0
  1  6  1  0  0  0  0
  1  7  1  0  0  0  0
  1  8  1  0  0  0  0
  2  9  1  0  0  0  0
  2 10  1  0  0  0  0
  3 11  1  0  0  0  0
  3 12  1  0  0  0  0
  4 13  1  0  0  0  0
  4 14  1  0  0  0  0
  5 15  1  0  0  0  0
M  END
