 xtb: 6.7.1 (edcfbbe)
          04062522313D

 15 14  0     0  0            999 V2000
    2.1591   -0.2528   -0.5723 C   0  0  0  0  0  0  0  0  0  0  0  0
    1.3829    0.4307    0.5484 C   0  0  0  0  0  0  0  0  0  0  0  0
   -0.0319   -0.1179    0.7238 C   0  0  0  0  0  0  0  0  0  0  0  0
   -0.9521    0.1949   -0.4531 C   0  0  0  0  0  0  0  0  0  0  0  0
   -2.2623   -0.2249   -0.1165 O   0  0  0  0  0  0  0  0  0  0  0  0
    2.1790   -1.3290   -0.4176 H   0  0  0  0  0  0  0  0  0  0  0  0
    1.7076   -0.0511   -1.5399 H   0  0  0  0  0  0  0  0  0  0  0  0
    3.1836    0.1102   -0.5937 H   0  0  0  0  0  0  0  0  0  0  0  0
    1.9210    0.2894    1.4876 H   0  0  0  0  0  0  0  0  0  0  0  0
    1.3314    1.5041    0.3539 H   0  0  0  0  0  0  0  0  0  0  0  0
   -0.0007   -1.2001    0.8625 H   0  0  0  0  0  0  0  0  0  0  0  0
   -0.4853    0.3153    1.6177 H   0  0  0  0  0  0  0  0  0  0  0  0
   -0.9407    1.2760   -0.6510 H   0  0  0  0  0  0  0  0  0  0  0  0
   -0.6108   -0.3313   -1.3531 H   0  0  0  0  0  0  0  0  0  0  0  0
   -2.8563   -0.0498   -0.8581 H   0  0  0  0  0  0  0  0  0  0  0  0
  1  2  1  0  0  0  0
  2  3  1  0  0  0  0
  3  4  1  0  0  0  0
  4  5  1  0  0  0  0
  1  6  1  0  0  0  0
  1  7  1  0  0  0  0
  1  8  1  0  0  0  0
  2  9  1  0  0  0  0
  2 10  1  0  0  0  0
  3 11  1  0  0  0  0
  3 12  1  0  0  0  0
  4 13  1  0  0  0  0
  4 14  1  0  0  0  0
  5 15  1  0  0  0  0
M  END
