 xtb: 6.7.1 (edcfbbe)
          04062522383D

 15 14  0     0  0            999 V2000
    2.4396   -0.0541    0.1443 C   0  0  0  0  0  0  0  0  0  0  0  0
    0.9954    0.4214    0.2419 C   0  0  0  0  0  0  0  0  0  0  0  0
    0.0640   -0.3995   -0.6479 C   0  0  0  0  0  0  0  0  0  0  0  0
   -1.3978    0.0187   -0.4838 C   0  0  0  0  0  0  0  0  0  0  0  0
   -1.8984   -0.1987    0.8190 O   0  0  0  0  0  0  0  0  0  0  0  0
    2.5231   -1.0923    0.4575 H   0  0  0  0  0  0  0  0  0  0  0  0
    2.7969    0.0246   -0.8800 H   0  0  0  0  0  0  0  0  0  0  0  0
    3.0823    0.5491    0.7804 H   0  0  0  0  0  0  0  0  0  0  0  0
    0.6516    0.3511    1.2760 H   0  0  0  0  0  0  0  0  0  0  0  0
    0.9353    1.4714   -0.0526 H   0  0  0  0  0  0  0  0  0  0  0  0
    0.3431   -0.2708   -1.6947 H   0  0  0  0  0  0  0  0  0  0  0  0
    0.1658   -1.4591   -0.4005 H   0  0  0  0  0  0  0  0  0  0  0  0
   -1.5018    1.0931   -0.6547 H   0  0  0  0  0  0  0  0  0  0  0  0
   -2.0215   -0.5097   -1.2182 H   0  0  0  0  0  0  0  0  0  0  0  0
   -1.8472   -1.1437    1.0193 H   0  0  0  0  0  0  0  0  0  0  0  0
  1  2  1  0  0  0  0
  2  3  1  0  0  0  0
  3  4  1  0  0  0  0
  4  5  1  0  0  0  0
  1  6  1  0  0  0  0
  1  7  1  0  0  0  0
  1  8  1  0  0  0  0
  2  9  1  0  0  0  0
  2 10  1  0  0  0  0
  3 11  1  0  0  0  0
  3 12  1  0  0  0  0
  4 13  1  0  0  0  0
  4 14  1  0  0  0  0
  5 15  1  0  0  0  0
M  END
